MAT-POS-983b399a-2_1
  -OEChem-01042202303D

 44 48  0     1  0  0  0  0  0999 V2000
    3.3444    2.6278   20.4409 C   0  0  0  0  0  0  0  0  0  0  0  0
    3.8974    1.9290   21.5048 C   0  0  0  0  0  0  0  0  0  0  0  0
    3.7877    2.4205   19.1658 C   0  0  0  0  0  0  0  0  0  0  0  0
    4.8986    1.0232   21.2985 C   0  0  0  0  0  0  0  0  0  0  0  0
   12.0781    0.0316   24.1532 C   0  0  0  0  0  0  0  0  0  0  0  0
   12.9147   -0.6032   23.2559 C   0  0  0  0  0  0  0  0  0  0  0  0
   11.0005   -1.4332   22.0435 C   0  0  0  0  0  0  0  0  0  0  0  0
    5.3288    1.2339   17.6062 C   0  0  0  0  0  0  0  0  0  0  0  0
    6.8449   -0.2893   18.3747 C   0  0  0  0  0  0  0  0  0  0  0  0
    4.8238    1.4906   18.9051 C   0  0  0  0  0  0  0  0  0  0  0  0
    5.3995    0.7732   19.9944 C   0  0  0  0  0  0  0  0  0  0  0  0
   10.1421   -0.7766   22.9242 C   0  0  0  0  0  0  0  0  0  0  0  0
    6.4452   -0.1472   19.6975 C   0  0  0  0  0  0  0  0  0  0  0  0
   10.7056   -0.0626   23.9890 C   0  0  0  0  0  0  0  0  0  0  0  0
   12.3697   -1.3298   22.2224 C   0  0  0  0  0  0  0  0  0  0  0  0
    8.0155   -2.1541   22.4325 C   0  0  0  0  0  0  0  0  0  0  0  0
    7.8737   -0.1194   23.8825 C   0  0  0  0  0  0  0  0  0  0  0  0
    6.9880   -1.9367   21.3575 C   0  0  0  0  0  0  0  0  0  0  0  0
    8.2504    0.0168   21.4265 C   0  0  0  0  0  0  0  0  0  0  0  0
    8.6625    1.0133   24.4989 C   0  0  0  0  0  0  0  0  0  0  0  0
    8.6253   -0.7606   22.6923 C   0  0  3  0  0  0  0  0  0  0  0  0
    6.3072    0.3768   17.3417 N   0  0  0  0  0  0  0  0  0  0  0  0
    7.2305   -0.6898   20.7785 N   0  0  3  0  0  0  0  0  0  0  0  0
    9.9496    0.5589   24.9527 O   0  0  0  0  0  0  0  0  0  0  0  0
   13.4302   -2.1390   21.1079 Cl  0  0  0  0  0  0  0  0  0  0  0  0
    2.5445    3.3511   20.6368 H   0  0  0  0  0  0  0  0  0  0  0  0
    3.5193    2.1138   22.5167 H   0  0  0  0  0  0  0  0  0  0  0  0
    3.3422    2.9745   18.3362 H   0  0  0  0  0  0  0  0  0  0  0  0
    5.3126    0.4886   22.1566 H   0  0  0  0  0  0  0  0  0  0  0  0
   12.5033    0.5965   24.9762 H   0  0  0  0  0  0  0  0  0  0  0  0
   13.9932   -0.5167   23.3782 H   0  0  0  0  0  0  0  0  0  0  0  0
   10.6197   -2.0176   21.2227 H   0  0  0  0  0  0  0  0  0  0  0  0
    4.9147    1.7513   16.7473 H   0  0  0  0  0  0  0  0  0  0  0  0
    7.6457   -0.9763   18.1044 H   0  0  0  0  0  0  0  0  0  0  0  0
    7.5137   -2.5241   23.3387 H   0  0  0  0  0  0  0  0  0  0  0  0
    8.7603   -2.9065   22.1414 H   0  0  0  0  0  0  0  0  0  0  0  0
    7.6406   -0.8783   24.6501 H   0  0  0  0  0  0  0  0  0  0  0  0
    6.9005    0.2680   23.5271 H   0  0  0  0  0  0  0  0  0  0  0  0
    7.0412   -2.7512   20.5911 H   0  0  0  0  0  0  0  0  0  0  0  0
    5.9579   -2.0155   21.7924 H   0  0  0  0  0  0  0  0  0  0  0  0
    7.8821    1.0371   21.6904 H   0  0  0  0  0  0  0  0  0  0  0  0
    9.1380    0.1874   20.7688 H   0  0  0  0  0  0  0  0  0  0  0  0
    8.8475    1.7847   23.7500 H   0  0  0  0  0  0  0  0  0  0  0  0
    8.1414    1.4832   25.3347 H   0  0  0  0  0  0  0  0  0  0  0  0
  1  2  2  0  0  0  0
  1  3  1  0  0  0  0
  2  4  1  0  0  0  0
  3 10  2  0  0  0  0
  4 11  2  0  0  0  0
  5  6  2  0  0  0  0
  5 14  1  0  0  0  0
  6 15  1  0  0  0  0
  7 12  1  0  0  0  0
  7 15  2  0  0  0  0
  8 10  1  0  0  0  0
  8 22  2  0  0  0  0
  9 13  2  0  0  0  0
  9 22  1  0  0  0  0
 10 11  1  0  0  0  0
 11 13  1  0  0  0  0
 12 14  2  0  0  0  0
 12 21  1  0  0  0  0
 13 23  1  0  0  0  0
 14 24  1  0  0  0  0
 15 25  1  0  0  0  0
 16 18  1  0  0  0  0
 16 21  1  0  0  0  0
 17 20  1  0  0  0  0
 17 21  1  0  0  0  0
 18 23  1  0  0  0  0
 19 21  1  0  0  0  0
 19 23  1  0  0  0  0
 20 24  1  0  0  0  0
  1 26  1  0  0  0  0
  2 27  1  0  0  0  0
  3 28  1  0  0  0  0
  4 29  1  0  0  0  0
  5 30  1  0  0  0  0
  6 31  1  0  0  0  0
  7 32  1  0  0  0  0
  8 33  1  0  0  0  0
  9 34  1  0  0  0  0
 16 35  1  0  0  0  0
 16 36  1  0  0  0  0
 17 37  1  0  0  0  0
 17 38  1  0  0  0  0
 18 39  1  0  0  0  0
 18 40  1  0  0  0  0
 19 41  1  0  0  0  0
 19 42  1  0  0  0  0
 20 43  1  0  0  0  0
 20 44  1  0  0  0  0
M  END
> <scaffold>
chromane-5spiro-isoquinoline

> <compound>
MAT-POS-983b399a-2

> <compound_smiles>
c1ccc2c(c1)cncc2N3CCC4(C3)CCOc5c4cc(cc5)Cl

> <enantiomer_smiles>
c1ccc2c(c1)cncc2N3CC[C@@]4(C3)CCOc5c4cc(cc5)Cl

> <clash_score>
0

> <docking_score>
3.4028234663852886e+38

> <overlap_score>
0.9471937417984009

> <MMFF_internal_energy>
130.9963829380862

> <docked_smiles>
c1ccc2c(c1)cncc2N3CC[C@@]4(C3)CCOc5c4cc(cc5)Cl

$$$$
EDJ-MED-159244ea-3_1
  -OEChem-01042202303D

 43 47  0     1  0  0  0  0  0999 V2000
    3.3444    2.6278   20.4409 C   0  0  0  0  0  0  0  0  0  0  0  0
    3.8974    1.9290   21.5048 C   0  0  0  0  0  0  0  0  0  0  0  0
    3.7877    2.4205   19.1658 C   0  0  0  0  0  0  0  0  0  0  0  0
    4.8986    1.0232   21.2985 C   0  0  0  0  0  0  0  0  0  0  0  0
   12.0781    0.0316   24.1532 C   0  0  0  0  0  0  0  0  0  0  0  0
   12.9147   -0.6032   23.2559 C   0  0  0  0  0  0  0  0  0  0  0  0
   11.0005   -1.4332   22.0435 C   0  0  0  0  0  0  0  0  0  0  0  0
    5.3288    1.2339   17.6062 C   0  0  0  0  0  0  0  0  0  0  0  0
    6.8449   -0.2893   18.3747 C   0  0  0  0  0  0  0  0  0  0  0  0
    4.8238    1.4906   18.9051 C   0  0  0  0  0  0  0  0  0  0  0  0
    5.3995    0.7732   19.9944 C   0  0  0  0  0  0  0  0  0  0  0  0
   10.1421   -0.7766   22.9242 C   0  0  0  0  0  0  0  0  0  0  0  0
    6.4452   -0.1472   19.6975 C   0  0  0  0  0  0  0  0  0  0  0  0
   10.7056   -0.0626   23.9890 C   0  0  0  0  0  0  0  0  0  0  0  0
   12.3697   -1.3298   22.2224 C   0  0  0  0  0  0  0  0  0  0  0  0
    6.9880   -1.9367   21.3575 C   0  0  0  0  0  0  0  0  0  0  0  0
    8.0155   -2.1541   22.4325 C   0  0  0  0  0  0  0  0  0  0  0  0
    7.8737   -0.1194   23.8825 C   0  0  0  0  0  0  0  0  0  0  0  0
    8.2504    0.0168   21.4265 C   0  0  0  0  0  0  0  0  0  0  0  0
    8.6625    1.0133   24.4989 C   0  0  0  0  0  0  0  0  0  0  0  0
    8.6253   -0.7606   22.6923 C   0  0  2  0  0  0  0  0  0  0  0  0
    6.3072    0.3768   17.3417 N   0  0  0  0  0  0  0  0  0  0  0  0
    7.2305   -0.6898   20.7785 N   0  0  0  0  0  0  0  0  0  0  0  0
    6.0927   -2.7470   21.1358 O   0  0  0  0  0  0  0  0  0  0  0  0
    9.9496    0.5589   24.9527 O   0  0  0  0  0  0  0  0  0  0  0  0
   13.4295   -2.1392   21.1075 Cl  0  0  0  0  0  0  0  0  0  0  0  0
    2.5443    3.3508   20.6368 H   0  0  0  0  0  0  0  0  0  0  0  0
    3.5189    2.1137   22.5166 H   0  0  0  0  0  0  0  0  0  0  0  0
    3.3421    2.9744   18.3363 H   0  0  0  0  0  0  0  0  0  0  0  0
    5.3131    0.4893   22.1569 H   0  0  0  0  0  0  0  0  0  0  0  0
   12.5030    0.5925   24.9794 H   0  0  0  0  0  0  0  0  0  0  0  0
   13.9931   -0.5201   23.3803 H   0  0  0  0  0  0  0  0  0  0  0  0
   10.6184   -2.0195   21.2240 H   0  0  0  0  0  0  0  0  0  0  0  0
    4.9151    1.7511   16.7471 H   0  0  0  0  0  0  0  0  0  0  0  0
    7.6455   -0.9765   18.1038 H   0  0  0  0  0  0  0  0  0  0  0  0
    7.4886   -2.5403   23.3133 H   0  0  0  0  0  0  0  0  0  0  0  0
    8.7541   -2.8936   22.1045 H   0  0  0  0  0  0  0  0  0  0  0  0
    7.6378   -0.8789   24.6488 H   0  0  0  0  0  0  0  0  0  0  0  0
    6.9019    0.2705   23.5262 H   0  0  0  0  0  0  0  0  0  0  0  0
    7.8550    1.0242   21.6776 H   0  0  0  0  0  0  0  0  0  0  0  0
    9.1192    0.1770   20.7518 H   0  0  0  0  0  0  0  0  0  0  0  0
    8.8474    1.7875   23.7503 H   0  0  0  0  0  0  0  0  0  0  0  0
    8.1386    1.4845   25.3350 H   0  0  0  0  0  0  0  0  0  0  0  0
  1  2  2  0  0  0  0
  1  3  1  0  0  0  0
  2  4  1  0  0  0  0
  3 10  2  0  0  0  0
  4 11  2  0  0  0  0
  5  6  2  0  0  0  0
  5 14  1  0  0  0  0
  6 15  1  0  0  0  0
  7 12  1  0  0  0  0
  7 15  2  0  0  0  0
  8 10  1  0  0  0  0
  8 22  2  0  0  0  0
  9 13  2  0  0  0  0
  9 22  1  0  0  0  0
 10 11  1  0  0  0  0
 11 13  1  0  0  0  0
 12 14  2  0  0  0  0
 12 21  1  6  0  0  0
 13 23  1  0  0  0  0
 14 25  1  0  0  0  0
 15 26  1  0  0  0  0
 16 17  1  0  0  0  0
 16 23  1  0  0  0  0
 16 24  2  0  0  0  0
 17 21  1  6  0  0  0
 18 20  1  0  0  0  0
 18 21  1  1  0  0  0
 19 21  1  1  0  0  0
 19 23  1  0  0  0  0
 20 25  1  0  0  0  0
  1 27  1  0  0  0  0
  2 28  1  0  0  0  0
  3 29  1  0  0  0  0
  4 30  1  0  0  0  0
  5 31  1  0  0  0  0
  6 32  1  0  0  0  0
  7 33  1  0  0  0  0
  8 34  1  0  0  0  0
  9 35  1  0  0  0  0
 17 36  1  0  0  0  0
 17 37  1  0  0  0  0
 18 38  1  0  0  0  0
 18 39  1  0  0  0  0
 19 40  1  0  0  0  0
 19 41  1  0  0  0  0
 20 42  1  0  0  0  0
 20 43  1  0  0  0  0
M  END
> <scaffold>
chromane-5spiro-isoquinoline

> <compound>
EDJ-MED-159244ea-3

> <compound_smiles>
c1ccc2c(c1)cncc2N3C[C@@]4(CCOc5c4cc(cc5)Cl)CC3=O

> <enantiomer_smiles>
c1ccc2c(c1)cncc2N3C[C@@]4(CCOc5c4cc(cc5)Cl)CC3=O

> <clash_score>
0

> <docking_score>
3.4028234663852886e+38

> <overlap_score>
0.9729102849960327

> <MMFF_internal_energy>
102.92176556089069

> <docked_smiles>
c1ccc2c(c1)cncc2N3C[C@@]4(CCOc5c4cc(cc5)Cl)CC3=O

$$$$
EDJ-MED-159244ea-1_1
  -OEChem-01042202303D

 43 47  0     1  0  0  0  0  0999 V2000
    3.3444    2.6278   20.4409 C   0  0  0  0  0  0  0  0  0  0  0  0
    3.8974    1.9290   21.5048 C   0  0  0  0  0  0  0  0  0  0  0  0
    3.7877    2.4205   19.1658 C   0  0  0  0  0  0  0  0  0  0  0  0
    4.8986    1.0232   21.2985 C   0  0  0  0  0  0  0  0  0  0  0  0
   12.0781    0.0316   24.1532 C   0  0  0  0  0  0  0  0  0  0  0  0
   12.9147   -0.6032   23.2559 C   0  0  0  0  0  0  0  0  0  0  0  0
   11.0005   -1.4332   22.0435 C   0  0  0  0  0  0  0  0  0  0  0  0
    5.3288    1.2339   17.6062 C   0  0  0  0  0  0  0  0  0  0  0  0
    6.8449   -0.2893   18.3747 C   0  0  0  0  0  0  0  0  0  0  0  0
    4.8238    1.4906   18.9051 C   0  0  0  0  0  0  0  0  0  0  0  0
    5.3995    0.7732   19.9944 C   0  0  0  0  0  0  0  0  0  0  0  0
   10.1421   -0.7766   22.9242 C   0  0  0  0  0  0  0  0  0  0  0  0
    6.4452   -0.1472   19.6975 C   0  0  0  0  0  0  0  0  0  0  0  0
   10.7056   -0.0626   23.9890 C   0  0  0  0  0  0  0  0  0  0  0  0
   12.3697   -1.3298   22.2224 C   0  0  0  0  0  0  0  0  0  0  0  0
    8.2504    0.0168   21.4265 C   0  0  0  0  0  0  0  0  0  0  0  0
    8.0155   -2.1541   22.4325 C   0  0  0  0  0  0  0  0  0  0  0  0
    7.8737   -0.1194   23.8825 C   0  0  0  0  0  0  0  0  0  0  0  0
    6.9880   -1.9367   21.3575 C   0  0  0  0  0  0  0  0  0  0  0  0
    8.6625    1.0133   24.4989 C   0  0  0  0  0  0  0  0  0  0  0  0
    8.6253   -0.7606   22.6923 C   0  0  2  0  0  0  0  0  0  0  0  0
    6.3072    0.3768   17.3417 N   0  0  0  0  0  0  0  0  0  0  0  0
    7.2305   -0.6898   20.7785 N   0  0  0  0  0  0  0  0  0  0  0  0
    8.8256    1.0440   21.0794 O   0  0  0  0  0  0  0  0  0  0  0  0
    9.9496    0.5589   24.9527 O   0  0  0  0  0  0  0  0  0  0  0  0
   13.4294   -2.1401   21.1076 Cl  0  0  0  0  0  0  0  0  0  0  0  0
    2.5443    3.3508   20.6368 H   0  0  0  0  0  0  0  0  0  0  0  0
    3.5189    2.1137   22.5166 H   0  0  0  0  0  0  0  0  0  0  0  0
    3.3421    2.9744   18.3363 H   0  0  0  0  0  0  0  0  0  0  0  0
    5.3131    0.4893   22.1569 H   0  0  0  0  0  0  0  0  0  0  0  0
   12.5017    0.5849   24.9862 H   0  0  0  0  0  0  0  0  0  0  0  0
   13.9928   -0.5279   23.3859 H   0  0  0  0  0  0  0  0  0  0  0  0
   10.6082   -2.0248   21.2294 H   0  0  0  0  0  0  0  0  0  0  0  0
    4.9151    1.7511   16.7471 H   0  0  0  0  0  0  0  0  0  0  0  0
    7.6455   -0.9765   18.1038 H   0  0  0  0  0  0  0  0  0  0  0  0
    7.5148   -2.5635   23.3235 H   0  0  0  0  0  0  0  0  0  0  0  0
    8.7697   -2.9022   22.1416 H   0  0  0  0  0  0  0  0  0  0  0  0
    7.6338   -0.8661   24.6571 H   0  0  0  0  0  0  0  0  0  0  0  0
    6.9115    0.2888   23.5276 H   0  0  0  0  0  0  0  0  0  0  0  0
    7.0591   -2.7256   20.5704 H   0  0  0  0  0  0  0  0  0  0  0  0
    5.9519   -1.9966   21.7713 H   0  0  0  0  0  0  0  0  0  0  0  0
    8.8480    1.7887   23.7481 H   0  0  0  0  0  0  0  0  0  0  0  0
    8.1344    1.4920   25.3324 H   0  0  0  0  0  0  0  0  0  0  0  0
  1  2  2  0  0  0  0
  1  3  1  0  0  0  0
  2  4  1  0  0  0  0
  3 10  2  0  0  0  0
  4 11  2  0  0  0  0
  5  6  2  0  0  0  0
  5 14  1  0  0  0  0
  6 15  1  0  0  0  0
  7 12  1  0  0  0  0
  7 15  2  0  0  0  0
  8 10  1  0  0  0  0
  8 22  2  0  0  0  0
  9 13  2  0  0  0  0
  9 22  1  0  0  0  0
 10 11  1  0  0  0  0
 11 13  1  0  0  0  0
 12 14  2  0  0  0  0
 12 21  1  1  0  0  0
 13 23  1  0  0  0  0
 14 25  1  0  0  0  0
 15 26  1  0  0  0  0
 16 21  1  6  0  0  0
 16 23  1  0  0  0  0
 16 24  2  0  0  0  0
 17 19  1  0  0  0  0
 17 21  1  6  0  0  0
 18 20  1  0  0  0  0
 18 21  1  1  0  0  0
 19 23  1  0  0  0  0
 20 25  1  0  0  0  0
  1 27  1  0  0  0  0
  2 28  1  0  0  0  0
  3 29  1  0  0  0  0
  4 30  1  0  0  0  0
  5 31  1  0  0  0  0
  6 32  1  0  0  0  0
  7 33  1  0  0  0  0
  8 34  1  0  0  0  0
  9 35  1  0  0  0  0
 17 36  1  0  0  0  0
 17 37  1  0  0  0  0
 18 38  1  0  0  0  0
 18 39  1  0  0  0  0
 19 40  1  0  0  0  0
 19 41  1  0  0  0  0
 20 42  1  0  0  0  0
 20 43  1  0  0  0  0
M  END
> <scaffold>
chromane-5spiro-isoquinoline

> <compound>
EDJ-MED-159244ea-1

> <compound_smiles>
c1ccc2c(c1)cncc2N3CC[C@]4(C3=O)CCOc5c4cc(cc5)Cl

> <enantiomer_smiles>
c1ccc2c(c1)cncc2N3CC[C@]4(C3=O)CCOc5c4cc(cc5)Cl

> <clash_score>
0

> <docking_score>
3.4028234663852886e+38

> <overlap_score>
0.9739359617233276

> <MMFF_internal_energy>
109.21017978570906

> <docked_smiles>
c1ccc2c(c1)cncc2N3CC[C@]4(C3=O)CCOc5c4cc(cc5)Cl

$$$$
EDJ-MED-159244ea-2_1
  -OEChem-01042202303D

 44 48  0     1  0  0  0  0  0999 V2000
    3.3444    2.6278   20.4409 C   0  0  0  0  0  0  0  0  0  0  0  0
    3.8974    1.9290   21.5048 C   0  0  0  0  0  0  0  0  0  0  0  0
    3.7877    2.4205   19.1658 C   0  0  0  0  0  0  0  0  0  0  0  0
    4.8986    1.0232   21.2985 C   0  0  0  0  0  0  0  0  0  0  0  0
   12.0781    0.0316   24.1532 C   0  0  0  0  0  0  0  0  0  0  0  0
   12.9147   -0.6032   23.2559 C   0  0  0  0  0  0  0  0  0  0  0  0
   11.0005   -1.4332   22.0435 C   0  0  0  0  0  0  0  0  0  0  0  0
    5.3288    1.2339   17.6062 C   0  0  0  0  0  0  0  0  0  0  0  0
    6.8449   -0.2893   18.3747 C   0  0  0  0  0  0  0  0  0  0  0  0
    4.8238    1.4906   18.9051 C   0  0  0  0  0  0  0  0  0  0  0  0
    5.3995    0.7732   19.9944 C   0  0  0  0  0  0  0  0  0  0  0  0
   10.1421   -0.7766   22.9242 C   0  0  0  0  0  0  0  0  0  0  0  0
    6.4452   -0.1472   19.6975 C   0  0  0  0  0  0  0  0  0  0  0  0
   10.7056   -0.0626   23.9890 C   0  0  0  0  0  0  0  0  0  0  0  0
   12.3697   -1.3298   22.2224 C   0  0  0  0  0  0  0  0  0  0  0  0
    8.0155   -2.1541   22.4325 C   0  0  0  0  0  0  0  0  0  0  0  0
    7.8737   -0.1194   23.8825 C   0  0  0  0  0  0  0  0  0  0  0  0
    6.9880   -1.9367   21.3575 C   0  0  0  0  0  0  0  0  0  0  0  0
    8.2504    0.0168   21.4265 C   0  0  0  0  0  0  0  0  0  0  0  0
    8.6625    1.0133   24.4989 C   0  0  0  0  0  0  0  0  0  0  0  0
    8.6253   -0.7606   22.6923 C   0  0  1  0  0  0  0  0  0  0  0  0
    6.3072    0.3768   17.3417 N   0  0  0  0  0  0  0  0  0  0  0  0
    7.2305   -0.6898   20.7785 N   0  0  3  0  0  0  0  0  0  0  0  0
    9.9496    0.5589   24.9527 O   0  0  0  0  0  0  0  0  0  0  0  0
   13.4302   -2.1390   21.1079 Cl  0  0  0  0  0  0  0  0  0  0  0  0
    2.5445    3.3511   20.6368 H   0  0  0  0  0  0  0  0  0  0  0  0
    3.5193    2.1138   22.5167 H   0  0  0  0  0  0  0  0  0  0  0  0
    3.3422    2.9745   18.3362 H   0  0  0  0  0  0  0  0  0  0  0  0
    5.3126    0.4886   22.1566 H   0  0  0  0  0  0  0  0  0  0  0  0
   12.5033    0.5965   24.9762 H   0  0  0  0  0  0  0  0  0  0  0  0
   13.9932   -0.5167   23.3782 H   0  0  0  0  0  0  0  0  0  0  0  0
   10.6197   -2.0176   21.2227 H   0  0  0  0  0  0  0  0  0  0  0  0
    4.9147    1.7513   16.7473 H   0  0  0  0  0  0  0  0  0  0  0  0
    7.6457   -0.9763   18.1044 H   0  0  0  0  0  0  0  0  0  0  0  0
    7.5137   -2.5241   23.3387 H   0  0  0  0  0  0  0  0  0  0  0  0
    8.7603   -2.9065   22.1414 H   0  0  0  0  0  0  0  0  0  0  0  0
    7.6406   -0.8783   24.6501 H   0  0  0  0  0  0  0  0  0  0  0  0
    6.9005    0.2680   23.5271 H   0  0  0  0  0  0  0  0  0  0  0  0
    7.0412   -2.7512   20.5911 H   0  0  0  0  0  0  0  0  0  0  0  0
    5.9579   -2.0155   21.7924 H   0  0  0  0  0  0  0  0  0  0  0  0
    7.8821    1.0371   21.6904 H   0  0  0  0  0  0  0  0  0  0  0  0
    9.1380    0.1874   20.7688 H   0  0  0  0  0  0  0  0  0  0  0  0
    8.8475    1.7847   23.7500 H   0  0  0  0  0  0  0  0  0  0  0  0
    8.1414    1.4832   25.3347 H   0  0  0  0  0  0  0  0  0  0  0  0
  1  2  2  0  0  0  0
  1  3  1  0  0  0  0
  2  4  1  0  0  0  0
  3 10  2  0  0  0  0
  4 11  2  0  0  0  0
  5  6  2  0  0  0  0
  5 14  1  0  0  0  0
  6 15  1  0  0  0  0
  7 12  1  0  0  0  0
  7 15  2  0  0  0  0
  8 10  1  0  0  0  0
  8 22  2  0  0  0  0
  9 13  2  0  0  0  0
  9 22  1  0  0  0  0
 10 11  1  0  0  0  0
 11 13  1  0  0  0  0
 12 14  2  0  0  0  0
 12 21  1  6  0  0  0
 13 23  1  0  0  0  0
 14 24  1  0  0  0  0
 15 25  1  0  0  0  0
 16 18  1  0  0  0  0
 16 21  1  1  0  0  0
 17 20  1  0  0  0  0
 17 21  1  6  0  0  0
 18 23  1  0  0  0  0
 19 21  1  1  0  0  0
 19 23  1  0  0  0  0
 20 24  1  0  0  0  0
  1 26  1  0  0  0  0
  2 27  1  0  0  0  0
  3 28  1  0  0  0  0
  4 29  1  0  0  0  0
  5 30  1  0  0  0  0
  6 31  1  0  0  0  0
  7 32  1  0  0  0  0
  8 33  1  0  0  0  0
  9 34  1  0  0  0  0
 16 35  1  0  0  0  0
 16 36  1  0  0  0  0
 17 37  1  0  0  0  0
 17 38  1  0  0  0  0
 18 39  1  0  0  0  0
 18 40  1  0  0  0  0
 19 41  1  0  0  0  0
 19 42  1  0  0  0  0
 20 43  1  0  0  0  0
 20 44  1  0  0  0  0
M  END
> <scaffold>
chromane-5spiro-isoquinoline

> <compound>
EDJ-MED-159244ea-2

> <compound_smiles>
c1ccc2c(c1)cncc2N3CC[C@@]4(C3)CCOc5c4cc(cc5)Cl

> <enantiomer_smiles>
c1ccc2c(c1)cncc2N3CC[C@@]4(C3)CCOc5c4cc(cc5)Cl

> <clash_score>
0

> <docking_score>
3.4028234663852886e+38

> <overlap_score>
0.9471937417984009

> <MMFF_internal_energy>
130.9963829380862

> <docked_smiles>
c1ccc2c(c1)cncc2N3CC[C@@]4(C3)CCOc5c4cc(cc5)Cl

$$$$
BRU-THA-73c97d88-1_1
  -OEChem-01042202303D

 40 44  0     1  0  0  0  0  0999 V2000
    3.3444    2.6278   20.4409 C   0  0  0  0  0  0  0  0  0  0  0  0
    3.8974    1.9290   21.5048 C   0  0  0  0  0  0  0  0  0  0  0  0
    3.7877    2.4205   19.1658 C   0  0  0  0  0  0  0  0  0  0  0  0
    4.8986    1.0232   21.2985 C   0  0  0  0  0  0  0  0  0  0  0  0
   12.0781    0.0316   24.1532 C   0  0  0  0  0  0  0  0  0  0  0  0
   12.9147   -0.6032   23.2559 C   0  0  0  0  0  0  0  0  0  0  0  0
   11.0005   -1.4332   22.0435 C   0  0  0  0  0  0  0  0  0  0  0  0
    5.3288    1.2339   17.6062 C   0  0  0  0  0  0  0  0  0  0  0  0
    6.8449   -0.2893   18.3747 C   0  0  0  0  0  0  0  0  0  0  0  0
    4.8238    1.4906   18.9051 C   0  0  0  0  0  0  0  0  0  0  0  0
    5.3995    0.7732   19.9944 C   0  0  0  0  0  0  0  0  0  0  0  0
   10.1421   -0.7766   22.9242 C   0  0  0  0  0  0  0  0  0  0  0  0
    6.4452   -0.1472   19.6975 C   0  0  0  0  0  0  0  0  0  0  0  0
   10.7056   -0.0626   23.9890 C   0  0  0  0  0  0  0  0  0  0  0  0
   12.3697   -1.3298   22.2224 C   0  0  0  0  0  0  0  0  0  0  0  0
    8.0155   -2.1541   22.4325 C   0  0  0  0  0  0  0  0  0  0  0  0
    8.2504    0.0168   21.4265 C   0  0  0  0  0  0  0  0  0  0  0  0
    7.8737   -0.1194   23.8825 C   0  0  0  0  0  0  0  0  0  0  0  0
    8.6625    1.0133   24.4989 C   0  0  0  0  0  0  0  0  0  0  0  0
    8.6253   -0.7606   22.6923 C   0  0  3  0  0  0  0  0  0  0  0  0
    6.3072    0.3768   17.3417 N   0  0  0  0  0  0  0  0  0  0  0  0
    6.9880   -1.9367   21.3575 N   0  0  0  0  0  0  0  0  0  0  0  0
    7.2305   -0.6898   20.7785 N   0  0  0  0  0  0  0  0  0  0  0  0
    8.8009    1.0782   21.0956 O   0  0  0  0  0  0  0  0  0  0  0  0
    9.9496    0.5589   24.9527 O   0  0  0  0  0  0  0  0  0  0  0  0
   13.4280   -2.1470   21.1113 Cl  0  0  0  0  0  0  0  0  0  0  0  0
    2.5443    3.3508   20.6368 H   0  0  0  0  0  0  0  0  0  0  0  0
    3.5189    2.1137   22.5166 H   0  0  0  0  0  0  0  0  0  0  0  0
    3.3421    2.9744   18.3363 H   0  0  0  0  0  0  0  0  0  0  0  0
    5.3131    0.4893   22.1569 H   0  0  0  0  0  0  0  0  0  0  0  0
   12.5021    0.6067   24.9714 H   0  0  0  0  0  0  0  0  0  0  0  0
   13.9925   -0.5157   23.3772 H   0  0  0  0  0  0  0  0  0  0  0  0
   10.6033   -2.0243   21.2289 H   0  0  0  0  0  0  0  0  0  0  0  0
    4.9151    1.7511   16.7471 H   0  0  0  0  0  0  0  0  0  0  0  0
    7.6455   -0.9765   18.1038 H   0  0  0  0  0  0  0  0  0  0  0  0
    8.2044   -3.0288   22.8514 H   0  0  0  0  0  0  0  0  0  0  0  0
    7.6969   -0.8883   24.6554 H   0  0  0  0  0  0  0  0  0  0  0  0
    6.8778    0.2365   23.5689 H   0  0  0  0  0  0  0  0  0  0  0  0
    8.8025    1.8502   23.8083 H   0  0  0  0  0  0  0  0  0  0  0  0
    8.1344    1.3981   25.3751 H   0  0  0  0  0  0  0  0  0  0  0  0
  1  2  2  0  0  0  0
  1  3  1  0  0  0  0
  2  4  1  0  0  0  0
  3 10  2  0  0  0  0
  4 11  2  0  0  0  0
  5  6  2  0  0  0  0
  5 14  1  0  0  0  0
  6 15  1  0  0  0  0
  7 12  1  0  0  0  0
  7 15  2  0  0  0  0
  8 10  1  0  0  0  0
  8 21  2  0  0  0  0
  9 13  2  0  0  0  0
  9 21  1  0  0  0  0
 10 11  1  0  0  0  0
 11 13  1  0  0  0  0
 12 14  2  0  0  0  0
 12 20  1  0  0  0  0
 13 23  1  0  0  0  0
 14 25  1  0  0  0  0
 15 26  1  0  0  0  0
 16 20  1  0  0  0  0
 16 22  2  0  0  0  0
 17 20  1  0  0  0  0
 17 23  1  0  0  0  0
 17 24  2  0  0  0  0
 18 19  1  0  0  0  0
 18 20  1  0  0  0  0
 19 25  1  0  0  0  0
 22 23  1  0  0  0  0
  1 27  1  0  0  0  0
  2 28  1  0  0  0  0
  3 29  1  0  0  0  0
  4 30  1  0  0  0  0
  5 31  1  0  0  0  0
  6 32  1  0  0  0  0
  7 33  1  0  0  0  0
  8 34  1  0  0  0  0
  9 35  1  0  0  0  0
 16 36  1  0  0  0  0
 18 37  1  0  0  0  0
 18 38  1  0  0  0  0
 19 39  1  0  0  0  0
 19 40  1  0  0  0  0
M  END
> <scaffold>
chromane-5spiro-isoquinoline

> <compound>
BRU-THA-73c97d88-1

> <compound_smiles>
c1ccc2c(c1)cncc2N3C(=O)C4(CCOc5c4cc(cc5)Cl)C=N3

> <enantiomer_smiles>
c1ccc2c(c1)cncc2N3C(=O)[C@@]4(CCOc5c4cc(cc5)Cl)C=N3

> <clash_score>
0

> <docking_score>
3.4028234663852886e+38

> <overlap_score>
0.973750650882721

> <MMFF_internal_energy>
159.58941598724263

> <docked_smiles>
c1ccc2c(c1)cncc2N3C(=O)[C@@]4(CCOc5c4cc(cc5)Cl)C=N3

$$$$
EDJ-MED-a6bab6fb-1_1
  -OEChem-01042202303D

 47 51  0     1  0  0  0  0  0999 V2000
    3.3444    2.6278   20.4409 C   0  0  0  0  0  0  0  0  0  0  0  0
    3.7877    2.4205   19.1658 C   0  0  0  0  0  0  0  0  0  0  0  0
    3.8974    1.9290   21.5048 C   0  0  0  0  0  0  0  0  0  0  0  0
   12.0781    0.0316   24.1532 C   0  0  0  0  0  0  0  0  0  0  0  0
   12.9147   -0.6032   23.2559 C   0  0  0  0  0  0  0  0  0  0  0  0
   11.0005   -1.4332   22.0435 C   0  0  0  0  0  0  0  0  0  0  0  0
    5.3288    1.2339   17.6062 C   0  0  0  0  0  0  0  0  0  0  0  0
    6.8449   -0.2893   18.3747 C   0  0  0  0  0  0  0  0  0  0  0  0
    4.8238    1.4906   18.9051 C   0  0  0  0  0  0  0  0  0  0  0  0
    5.3995    0.7732   19.9944 C   0  0  0  0  0  0  0  0  0  0  0  0
   10.1421   -0.7766   22.9242 C   0  0  0  0  0  0  0  0  0  0  0  0
    4.8986    1.0232   21.2985 C   0  0  0  0  0  0  0  0  0  0  0  0
    6.4452   -0.1472   19.6975 C   0  0  0  0  0  0  0  0  0  0  0  0
   10.7056   -0.0626   23.9890 C   0  0  0  0  0  0  0  0  0  0  0  0
   12.3697   -1.3298   22.2224 C   0  0  0  0  0  0  0  0  0  0  0  0
    8.0155   -2.1541   22.4325 C   0  0  0  0  0  0  0  0  0  0  0  0
    7.8737   -0.1194   23.8825 C   0  0  0  0  0  0  0  0  0  0  0  0
    6.9880   -1.9367   21.3575 C   0  0  0  0  0  0  0  0  0  0  0  0
    8.2504    0.0168   21.4265 C   0  0  0  0  0  0  0  0  0  0  0  0
    8.6625    1.0133   24.4989 C   0  0  0  0  0  0  0  0  0  0  0  0
    8.6253   -0.7606   22.6923 C   0  0  3  0  0  0  0  0  0  0  0  0
    5.4174    0.3277   22.5244 C   0  0  0  0  0  0  0  0  0  0  0  0
    6.3072    0.3768   17.3417 N   0  0  0  0  0  0  0  0  0  0  0  0
    7.2305   -0.6898   20.7785 N   0  0  3  0  0  0  0  0  0  0  0  0
    9.9496    0.5589   24.9527 O   0  0  0  0  0  0  0  0  0  0  0  0
   13.4302   -2.1390   21.1079 Cl  0  0  0  0  0  0  0  0  0  0  0  0
    2.5428    3.3494   20.6363 H   0  0  0  0  0  0  0  0  0  0  0  0
    3.3416    2.9743   18.3364 H   0  0  0  0  0  0  0  0  0  0  0  0
    3.5095    2.1238   22.5125 H   0  0  0  0  0  0  0  0  0  0  0  0
   12.5033    0.5965   24.9762 H   0  0  0  0  0  0  0  0  0  0  0  0
   13.9932   -0.5167   23.3782 H   0  0  0  0  0  0  0  0  0  0  0  0
   10.6197   -2.0176   21.2227 H   0  0  0  0  0  0  0  0  0  0  0  0
    4.9145    1.7509   16.7471 H   0  0  0  0  0  0  0  0  0  0  0  0
    7.6462   -0.9753   18.1026 H   0  0  0  0  0  0  0  0  0  0  0  0
    7.5137   -2.5241   23.3387 H   0  0  0  0  0  0  0  0  0  0  0  0
    8.7603   -2.9065   22.1414 H   0  0  0  0  0  0  0  0  0  0  0  0
    7.6406   -0.8783   24.6501 H   0  0  0  0  0  0  0  0  0  0  0  0
    6.9005    0.2680   23.5271 H   0  0  0  0  0  0  0  0  0  0  0  0
    7.0412   -2.7512   20.5911 H   0  0  0  0  0  0  0  0  0  0  0  0
    5.9579   -2.0155   21.7924 H   0  0  0  0  0  0  0  0  0  0  0  0
    7.8821    1.0371   21.6904 H   0  0  0  0  0  0  0  0  0  0  0  0
    9.1380    0.1874   20.7688 H   0  0  0  0  0  0  0  0  0  0  0  0
    8.8475    1.7847   23.7500 H   0  0  0  0  0  0  0  0  0  0  0  0
    8.1414    1.4832   25.3347 H   0  0  0  0  0  0  0  0  0  0  0  0
    4.8458   -0.5878   22.7071 H   0  0  0  0  0  0  0  0  0  0  0  0
    6.4765    0.0680   22.4206 H   0  0  0  0  0  0  0  0  0  0  0  0
    5.3293    0.9798   23.4004 H   0  0  0  0  0  0  0  0  0  0  0  0
  1  2  2  0  0  0  0
  1  3  1  0  0  0  0
  2  9  1  0  0  0  0
  3 12  2  0  0  0  0
  4  5  2  0  0  0  0
  4 14  1  0  0  0  0
  5 15  1  0  0  0  0
  6 11  1  0  0  0  0
  6 15  2  0  0  0  0
  7  9  2  0  0  0  0
  7 23  1  0  0  0  0
  8 13  1  0  0  0  0
  8 23  2  0  0  0  0
  9 10  1  0  0  0  0
 10 12  1  0  0  0  0
 10 13  2  0  0  0  0
 11 14  2  0  0  0  0
 11 21  1  0  0  0  0
 12 22  1  0  0  0  0
 13 24  1  0  0  0  0
 14 25  1  0  0  0  0
 15 26  1  0  0  0  0
 16 18  1  0  0  0  0
 16 21  1  0  0  0  0
 17 20  1  0  0  0  0
 17 21  1  0  0  0  0
 18 24  1  0  0  0  0
 19 21  1  0  0  0  0
 19 24  1  0  0  0  0
 20 25  1  0  0  0  0
  1 27  1  0  0  0  0
  2 28  1  0  0  0  0
  3 29  1  0  0  0  0
  4 30  1  0  0  0  0
  5 31  1  0  0  0  0
  6 32  1  0  0  0  0
  7 33  1  0  0  0  0
  8 34  1  0  0  0  0
 16 35  1  0  0  0  0
 16 36  1  0  0  0  0
 17 37  1  0  0  0  0
 17 38  1  0  0  0  0
 18 39  1  0  0  0  0
 18 40  1  0  0  0  0
 19 41  1  0  0  0  0
 19 42  1  0  0  0  0
 20 43  1  0  0  0  0
 20 44  1  0  0  0  0
 22 45  1  0  0  0  0
 22 46  1  0  0  0  0
 22 47  1  0  0  0  0
M  END
> <scaffold>
chromane-5spiro-isoquinoline

> <compound>
EDJ-MED-a6bab6fb-1

> <compound_smiles>
Cc1cccc2c1c(cnc2)N3CCC4(C3)CCOc5c4cc(cc5)Cl

> <enantiomer_smiles>
Cc1cccc2c1c(cnc2)N3CC[C@@]4(C3)CCOc5c4cc(cc5)Cl

> <clash_score>
0

> <docking_score>
3.4028234663852886e+38

> <overlap_score>
0.9570977687835693

> <MMFF_internal_energy>
238.214526053352

> <docked_smiles>
Cc1cccc2c1c(cnc2)N3CC[C@@]4(C3)CCOc5c4cc(cc5)Cl

$$$$
MAT-POS-983b399a-3_1
  -OEChem-01042202303D

 43 47  0     1  0  0  0  0  0999 V2000
    3.3444    2.6278   20.4409 C   0  0  0  0  0  0  0  0  0  0  0  0
    3.8974    1.9290   21.5048 C   0  0  0  0  0  0  0  0  0  0  0  0
    3.7877    2.4205   19.1658 C   0  0  0  0  0  0  0  0  0  0  0  0
    4.8986    1.0232   21.2985 C   0  0  0  0  0  0  0  0  0  0  0  0
   12.0781    0.0316   24.1532 C   0  0  0  0  0  0  0  0  0  0  0  0
   12.9147   -0.6032   23.2559 C   0  0  0  0  0  0  0  0  0  0  0  0
   11.0005   -1.4332   22.0435 C   0  0  0  0  0  0  0  0  0  0  0  0
    5.3288    1.2339   17.6062 C   0  0  0  0  0  0  0  0  0  0  0  0
    6.8449   -0.2893   18.3747 C   0  0  0  0  0  0  0  0  0  0  0  0
    4.8238    1.4906   18.9051 C   0  0  0  0  0  0  0  0  0  0  0  0
    5.3995    0.7732   19.9944 C   0  0  0  0  0  0  0  0  0  0  0  0
   10.1421   -0.7766   22.9242 C   0  0  0  0  0  0  0  0  0  0  0  0
    6.4452   -0.1472   19.6975 C   0  0  0  0  0  0  0  0  0  0  0  0
   10.7056   -0.0626   23.9890 C   0  0  0  0  0  0  0  0  0  0  0  0
   12.3697   -1.3298   22.2224 C   0  0  0  0  0  0  0  0  0  0  0  0
    6.9880   -1.9367   21.3575 C   0  0  0  0  0  0  0  0  0  0  0  0
    8.0155   -2.1541   22.4325 C   0  0  0  0  0  0  0  0  0  0  0  0
    7.8737   -0.1194   23.8825 C   0  0  0  0  0  0  0  0  0  0  0  0
    8.2504    0.0168   21.4265 C   0  0  0  0  0  0  0  0  0  0  0  0
    8.6625    1.0133   24.4989 C   0  0  0  0  0  0  0  0  0  0  0  0
    8.6253   -0.7606   22.6923 C   0  0  3  0  0  0  0  0  0  0  0  0
    6.3072    0.3768   17.3417 N   0  0  0  0  0  0  0  0  0  0  0  0
    7.2305   -0.6898   20.7785 N   0  0  0  0  0  0  0  0  0  0  0  0
    6.0927   -2.7470   21.1358 O   0  0  0  0  0  0  0  0  0  0  0  0
    9.9496    0.5589   24.9527 O   0  0  0  0  0  0  0  0  0  0  0  0
   13.4295   -2.1392   21.1075 Cl  0  0  0  0  0  0  0  0  0  0  0  0
    2.5443    3.3508   20.6368 H   0  0  0  0  0  0  0  0  0  0  0  0
    3.5189    2.1137   22.5166 H   0  0  0  0  0  0  0  0  0  0  0  0
    3.3421    2.9744   18.3363 H   0  0  0  0  0  0  0  0  0  0  0  0
    5.3131    0.4893   22.1569 H   0  0  0  0  0  0  0  0  0  0  0  0
   12.5030    0.5925   24.9794 H   0  0  0  0  0  0  0  0  0  0  0  0
   13.9931   -0.5201   23.3803 H   0  0  0  0  0  0  0  0  0  0  0  0
   10.6184   -2.0195   21.2240 H   0  0  0  0  0  0  0  0  0  0  0  0
    4.9151    1.7511   16.7471 H   0  0  0  0  0  0  0  0  0  0  0  0
    7.6455   -0.9765   18.1038 H   0  0  0  0  0  0  0  0  0  0  0  0
    7.4886   -2.5403   23.3133 H   0  0  0  0  0  0  0  0  0  0  0  0
    8.7541   -2.8936   22.1045 H   0  0  0  0  0  0  0  0  0  0  0  0
    7.6378   -0.8789   24.6488 H   0  0  0  0  0  0  0  0  0  0  0  0
    6.9019    0.2705   23.5262 H   0  0  0  0  0  0  0  0  0  0  0  0
    7.8550    1.0242   21.6776 H   0  0  0  0  0  0  0  0  0  0  0  0
    9.1192    0.1770   20.7518 H   0  0  0  0  0  0  0  0  0  0  0  0
    8.8474    1.7875   23.7503 H   0  0  0  0  0  0  0  0  0  0  0  0
    8.1386    1.4845   25.3350 H   0  0  0  0  0  0  0  0  0  0  0  0
  1  2  2  0  0  0  0
  1  3  1  0  0  0  0
  2  4  1  0  0  0  0
  3 10  2  0  0  0  0
  4 11  2  0  0  0  0
  5  6  2  0  0  0  0
  5 14  1  0  0  0  0
  6 15  1  0  0  0  0
  7 12  1  0  0  0  0
  7 15  2  0  0  0  0
  8 10  1  0  0  0  0
  8 22  2  0  0  0  0
  9 13  2  0  0  0  0
  9 22  1  0  0  0  0
 10 11  1  0  0  0  0
 11 13  1  0  0  0  0
 12 14  2  0  0  0  0
 12 21  1  0  0  0  0
 13 23  1  0  0  0  0
 14 25  1  0  0  0  0
 15 26  1  0  0  0  0
 16 17  1  0  0  0  0
 16 23  1  0  0  0  0
 16 24  2  0  0  0  0
 17 21  1  0  0  0  0
 18 20  1  0  0  0  0
 18 21  1  0  0  0  0
 19 21  1  0  0  0  0
 19 23  1  0  0  0  0
 20 25  1  0  0  0  0
  1 27  1  0  0  0  0
  2 28  1  0  0  0  0
  3 29  1  0  0  0  0
  4 30  1  0  0  0  0
  5 31  1  0  0  0  0
  6 32  1  0  0  0  0
  7 33  1  0  0  0  0
  8 34  1  0  0  0  0
  9 35  1  0  0  0  0
 17 36  1  0  0  0  0
 17 37  1  0  0  0  0
 18 38  1  0  0  0  0
 18 39  1  0  0  0  0
 19 40  1  0  0  0  0
 19 41  1  0  0  0  0
 20 42  1  0  0  0  0
 20 43  1  0  0  0  0
M  END
> <scaffold>
chromane-5spiro-isoquinoline

> <compound>
MAT-POS-983b399a-3

> <compound_smiles>
c1ccc2c(c1)cncc2N3CC4(CCOc5c4cc(cc5)Cl)CC3=O

> <enantiomer_smiles>
c1ccc2c(c1)cncc2N3C[C@@]4(CCOc5c4cc(cc5)Cl)CC3=O

> <clash_score>
0

> <docking_score>
3.4028234663852886e+38

> <overlap_score>
0.9729102849960327

> <MMFF_internal_energy>
102.92176556089069

> <docked_smiles>
c1ccc2c(c1)cncc2N3C[C@@]4(CCOc5c4cc(cc5)Cl)CC3=O

$$$$
EDJ-MED-e78d5f1a-1_1
  -OEChem-01042202303D

 44 48  0     1  0  0  0  0  0999 V2000
    3.3444    2.6278   20.4409 C   0  0  0  0  0  0  0  0  0  0  0  0
    3.7877    2.4205   19.1658 C   0  0  0  0  0  0  0  0  0  0  0  0
   12.0781    0.0316   24.1532 C   0  0  0  0  0  0  0  0  0  0  0  0
    3.8974    1.9290   21.5048 C   0  0  0  0  0  0  0  0  0  0  0  0
   12.9147   -0.6032   23.2559 C   0  0  0  0  0  0  0  0  0  0  0  0
   11.0005   -1.4332   22.0435 C   0  0  0  0  0  0  0  0  0  0  0  0
    5.3288    1.2339   17.6062 C   0  0  0  0  0  0  0  0  0  0  0  0
    6.8449   -0.2893   18.3747 C   0  0  0  0  0  0  0  0  0  0  0  0
    4.8238    1.4906   18.9051 C   0  0  0  0  0  0  0  0  0  0  0  0
    5.3995    0.7732   19.9944 C   0  0  0  0  0  0  0  0  0  0  0  0
   10.1421   -0.7766   22.9242 C   0  0  0  0  0  0  0  0  0  0  0  0
    6.4452   -0.1472   19.6975 C   0  0  0  0  0  0  0  0  0  0  0  0
   10.7056   -0.0626   23.9890 C   0  0  0  0  0  0  0  0  0  0  0  0
   12.3697   -1.3298   22.2224 C   0  0  0  0  0  0  0  0  0  0  0  0
    4.8986    1.0232   21.2985 C   0  0  0  0  0  0  0  0  0  0  0  0
    8.0155   -2.1541   22.4325 C   0  0  0  0  0  0  0  0  0  0  0  0
    7.8737   -0.1194   23.8825 C   0  0  0  0  0  0  0  0  0  0  0  0
    6.9880   -1.9367   21.3575 C   0  0  0  0  0  0  0  0  0  0  0  0
    8.2504    0.0168   21.4265 C   0  0  0  0  0  0  0  0  0  0  0  0
    8.6625    1.0133   24.4989 C   0  0  0  0  0  0  0  0  0  0  0  0
    8.6253   -0.7606   22.6923 C   0  0  3  0  0  0  0  0  0  0  0  0
    6.3072    0.3768   17.3417 N   0  0  0  0  0  0  0  0  0  0  0  0
    7.2305   -0.6898   20.7785 N   0  0  3  0  0  0  0  0  0  0  0  0
    9.9496    0.5589   24.9527 O   0  0  0  0  0  0  0  0  0  0  0  0
   13.4302   -2.1390   21.1079 Cl  0  0  0  0  0  0  0  0  0  0  0  0
    5.4621    0.2474   22.7532 Cl  0  0  0  0  0  0  0  0  0  0  0  0
    2.5432    3.3499   20.6365 H   0  0  0  0  0  0  0  0  0  0  0  0
    3.3422    2.9737   18.3358 H   0  0  0  0  0  0  0  0  0  0  0  0
   12.5033    0.5965   24.9762 H   0  0  0  0  0  0  0  0  0  0  0  0
    3.5008    2.1323   22.5078 H   0  0  0  0  0  0  0  0  0  0  0  0
   13.9932   -0.5167   23.3782 H   0  0  0  0  0  0  0  0  0  0  0  0
   10.6197   -2.0176   21.2227 H   0  0  0  0  0  0  0  0  0  0  0  0
    4.9151    1.7511   16.7472 H   0  0  0  0  0  0  0  0  0  0  0  0
    7.6464   -0.9744   18.1008 H   0  0  0  0  0  0  0  0  0  0  0  0
    7.5137   -2.5241   23.3387 H   0  0  0  0  0  0  0  0  0  0  0  0
    8.7603   -2.9065   22.1414 H   0  0  0  0  0  0  0  0  0  0  0  0
    7.6406   -0.8783   24.6501 H   0  0  0  0  0  0  0  0  0  0  0  0
    6.9005    0.2680   23.5271 H   0  0  0  0  0  0  0  0  0  0  0  0
    7.0412   -2.7512   20.5911 H   0  0  0  0  0  0  0  0  0  0  0  0
    5.9579   -2.0155   21.7924 H   0  0  0  0  0  0  0  0  0  0  0  0
    7.8821    1.0371   21.6904 H   0  0  0  0  0  0  0  0  0  0  0  0
    9.1380    0.1874   20.7688 H   0  0  0  0  0  0  0  0  0  0  0  0
    8.8475    1.7847   23.7500 H   0  0  0  0  0  0  0  0  0  0  0  0
    8.1414    1.4832   25.3347 H   0  0  0  0  0  0  0  0  0  0  0  0
  1  2  2  0  0  0  0
  1  4  1  0  0  0  0
  2  9  1  0  0  0  0
  3  5  2  0  0  0  0
  3 13  1  0  0  0  0
  4 15  2  0  0  0  0
  5 14  1  0  0  0  0
  6 11  1  0  0  0  0
  6 14  2  0  0  0  0
  7  9  2  0  0  0  0
  7 22  1  0  0  0  0
  8 12  1  0  0  0  0
  8 22  2  0  0  0  0
  9 10  1  0  0  0  0
 10 12  2  0  0  0  0
 10 15  1  0  0  0  0
 11 13  2  0  0  0  0
 11 21  1  0  0  0  0
 12 23  1  0  0  0  0
 13 24  1  0  0  0  0
 14 25  1  0  0  0  0
 15 26  1  0  0  0  0
 16 18  1  0  0  0  0
 16 21  1  0  0  0  0
 17 20  1  0  0  0  0
 17 21  1  0  0  0  0
 18 23  1  0  0  0  0
 19 21  1  0  0  0  0
 19 23  1  0  0  0  0
 20 24  1  0  0  0  0
  1 27  1  0  0  0  0
  2 28  1  0  0  0  0
  3 29  1  0  0  0  0
  4 30  1  0  0  0  0
  5 31  1  0  0  0  0
  6 32  1  0  0  0  0
  7 33  1  0  0  0  0
  8 34  1  0  0  0  0
 16 35  1  0  0  0  0
 16 36  1  0  0  0  0
 17 37  1  0  0  0  0
 17 38  1  0  0  0  0
 18 39  1  0  0  0  0
 18 40  1  0  0  0  0
 19 41  1  0  0  0  0
 19 42  1  0  0  0  0
 20 43  1  0  0  0  0
 20 44  1  0  0  0  0
M  END
> <scaffold>
chromane-5spiro-isoquinoline

> <compound>
EDJ-MED-e78d5f1a-1

> <compound_smiles>
c1cc2cncc(c2c(c1)Cl)N3CCC4(C3)CCOc5c4cc(cc5)Cl

> <enantiomer_smiles>
c1cc2cncc(c2c(c1)Cl)N3CC[C@@]4(C3)CCOc5c4cc(cc5)Cl

> <clash_score>
0

> <docking_score>
3.4028234663852886e+38

> <overlap_score>
0.9546908736228943

> <MMFF_internal_energy>
218.6470405885548

> <docked_smiles>
c1cc2cncc(c2c(c1)Cl)N3CC[C@@]4(C3)CCOc5c4cc(cc5)Cl

$$$$
BRU-THA-55eab31a-1_1
  -OEChem-01042202303D

 41 45  0     1  0  0  0  0  0999 V2000
    3.3444    2.6278   20.4409 C   0  0  0  0  0  0  0  0  0  0  0  0
    3.8974    1.9290   21.5048 C   0  0  0  0  0  0  0  0  0  0  0  0
    3.7877    2.4205   19.1658 C   0  0  0  0  0  0  0  0  0  0  0  0
    4.8986    1.0232   21.2985 C   0  0  0  0  0  0  0  0  0  0  0  0
   12.0781    0.0316   24.1532 C   0  0  0  0  0  0  0  0  0  0  0  0
   12.9147   -0.6032   23.2559 C   0  0  0  0  0  0  0  0  0  0  0  0
   11.0005   -1.4332   22.0435 C   0  0  0  0  0  0  0  0  0  0  0  0
    5.3288    1.2339   17.6062 C   0  0  0  0  0  0  0  0  0  0  0  0
    6.8449   -0.2893   18.3747 C   0  0  0  0  0  0  0  0  0  0  0  0
    4.8238    1.4906   18.9051 C   0  0  0  0  0  0  0  0  0  0  0  0
    5.3995    0.7732   19.9944 C   0  0  0  0  0  0  0  0  0  0  0  0
   10.1421   -0.7766   22.9242 C   0  0  0  0  0  0  0  0  0  0  0  0
   10.7056   -0.0626   23.9890 C   0  0  0  0  0  0  0  0  0  0  0  0
    6.4452   -0.1472   19.6975 C   0  0  0  0  0  0  0  0  0  0  0  0
   12.3697   -1.3298   22.2224 C   0  0  0  0  0  0  0  0  0  0  0  0
    8.0155   -2.1541   22.4325 C   0  0  0  0  0  0  0  0  0  0  0  0
    8.2504    0.0168   21.4265 C   0  0  0  0  0  0  0  0  0  0  0  0
    7.8737   -0.1194   23.8825 C   0  0  0  0  0  0  0  0  0  0  0  0
    8.6625    1.0133   24.4989 C   0  0  0  0  0  0  0  0  0  0  0  0
    8.6253   -0.7606   22.6923 C   0  0  3  0  0  0  0  0  0  0  0  0
    6.3072    0.3768   17.3417 N   0  0  0  0  0  0  0  0  0  0  0  0
    6.9880   -1.9367   21.3575 N   0  0  0  0  0  0  0  0  0  0  0  0
    9.9496    0.5589   24.9527 N   0  0  0  0  0  0  0  0  0  0  0  0
    7.2305   -0.6898   20.7785 N   0  0  0  0  0  0  0  0  0  0  0  0
    8.7975    1.0816   21.1005 O   0  0  0  0  0  0  0  0  0  0  0  0
   13.4286   -2.1456   21.1110 Cl  0  0  0  0  0  0  0  0  0  0  0  0
    2.5443    3.3508   20.6368 H   0  0  0  0  0  0  0  0  0  0  0  0
    3.5189    2.1137   22.5166 H   0  0  0  0  0  0  0  0  0  0  0  0
    3.3421    2.9744   18.3363 H   0  0  0  0  0  0  0  0  0  0  0  0
    5.3131    0.4893   22.1569 H   0  0  0  0  0  0  0  0  0  0  0  0
   12.5057    0.6026   24.9669 H   0  0  0  0  0  0  0  0  0  0  0  0
   13.9924   -0.5150   23.3754 H   0  0  0  0  0  0  0  0  0  0  0  0
   10.6067   -2.0225   21.2262 H   0  0  0  0  0  0  0  0  0  0  0  0
    4.9151    1.7511   16.7471 H   0  0  0  0  0  0  0  0  0  0  0  0
    7.6455   -0.9765   18.1038 H   0  0  0  0  0  0  0  0  0  0  0  0
    8.2166   -3.0321   22.8382 H   0  0  0  0  0  0  0  0  0  0  0  0
    7.6739   -0.8804   24.6515 H   0  0  0  0  0  0  0  0  0  0  0  0
    6.8893    0.2481   23.5605 H   0  0  0  0  0  0  0  0  0  0  0  0
    8.7966    1.8316   23.7749 H   0  0  0  0  0  0  0  0  0  0  0  0
    8.1080    1.4381   25.3483 H   0  0  0  0  0  0  0  0  0  0  0  0
   10.3439    0.8965   25.7806 H   0  0  0  0  0  0  0  0  0  0  0  0
  1  2  2  0  0  0  0
  1  3  1  0  0  0  0
  2  4  1  0  0  0  0
  3 10  2  0  0  0  0
  4 11  2  0  0  0  0
  5  6  2  0  0  0  0
  5 13  1  0  0  0  0
  6 15  1  0  0  0  0
  7 12  1  0  0  0  0
  7 15  2  0  0  0  0
  8 10  1  0  0  0  0
  8 21  2  0  0  0  0
  9 14  2  0  0  0  0
  9 21  1  0  0  0  0
 10 11  1  0  0  0  0
 11 14  1  0  0  0  0
 12 13  2  0  0  0  0
 12 20  1  0  0  0  0
 13 23  1  0  0  0  0
 14 24  1  0  0  0  0
 15 26  1  0  0  0  0
 16 20  1  0  0  0  0
 16 22  2  0  0  0  0
 17 20  1  0  0  0  0
 17 24  1  0  0  0  0
 17 25  2  0  0  0  0
 18 19  1  0  0  0  0
 18 20  1  0  0  0  0
 19 23  1  0  0  0  0
 22 24  1  0  0  0  0
  1 27  1  0  0  0  0
  2 28  1  0  0  0  0
  3 29  1  0  0  0  0
  4 30  1  0  0  0  0
  5 31  1  0  0  0  0
  6 32  1  0  0  0  0
  7 33  1  0  0  0  0
  8 34  1  0  0  0  0
  9 35  1  0  0  0  0
 16 36  1  0  0  0  0
 18 37  1  0  0  0  0
 18 38  1  0  0  0  0
 19 39  1  0  0  0  0
 19 40  1  0  0  0  0
 23 41  1  0  0  0  0
M  END
> <scaffold>
tetralinlike-5spiro-isoquinoline

> <compound>
BRU-THA-55eab31a-1

> <compound_smiles>
c1ccc2c(c1)cncc2N3C(=O)C4(CCNc5c4cc(cc5)Cl)C=N3

> <enantiomer_smiles>
c1ccc2c(c1)cncc2N3C(=O)[C@]4(CCNc5c4cc(cc5)Cl)C=N3

> <clash_score>
0

> <docking_score>
3.4028234663852886e+38

> <overlap_score>
0.9737511873245239

> <MMFF_internal_energy>
148.73386164775533

> <docked_smiles>
c1ccc2c(c1)cncc2N3C(=O)[C@]4(CCNc5c4cc(cc5)Cl)C=N3

$$$$
VLA-UCB-34f3ed0c-11_1
  -OEChem-01042202303D

 41 45  0     1  0  0  0  0  0999 V2000
    3.3444    2.6278   20.4409 C   0  0  0  0  0  0  0  0  0  0  0  0
    3.8974    1.9290   21.5048 C   0  0  0  0  0  0  0  0  0  0  0  0
    3.7877    2.4205   19.1658 C   0  0  0  0  0  0  0  0  0  0  0  0
    4.8986    1.0232   21.2985 C   0  0  0  0  0  0  0  0  0  0  0  0
   12.0781    0.0316   24.1532 C   0  0  0  0  0  0  0  0  0  0  0  0
   12.9147   -0.6032   23.2559 C   0  0  0  0  0  0  0  0  0  0  0  0
   11.0005   -1.4332   22.0435 C   0  0  0  0  0  0  0  0  0  0  0  0
    5.3288    1.2339   17.6062 C   0  0  0  0  0  0  0  0  0  0  0  0
    6.8449   -0.2893   18.3747 C   0  0  0  0  0  0  0  0  0  0  0  0
    4.8238    1.4906   18.9051 C   0  0  0  0  0  0  0  0  0  0  0  0
    5.3995    0.7732   19.9944 C   0  0  0  0  0  0  0  0  0  0  0  0
   10.1421   -0.7766   22.9242 C   0  0  0  0  0  0  0  0  0  0  0  0
    6.4452   -0.1472   19.6975 C   0  0  0  0  0  0  0  0  0  0  0  0
   10.7056   -0.0626   23.9890 C   0  0  0  0  0  0  0  0  0  0  0  0
   12.3697   -1.3298   22.2224 C   0  0  0  0  0  0  0  0  0  0  0  0
    8.2504    0.0168   21.4265 C   0  0  0  0  0  0  0  0  0  0  0  0
    6.9880   -1.9367   21.3575 C   0  0  0  0  0  0  0  0  0  0  0  0
    7.8737   -0.1194   23.8825 C   0  0  0  0  0  0  0  0  0  0  0  0
    8.6625    1.0133   24.4989 C   0  0  0  0  0  0  0  0  0  0  0  0
    8.6253   -0.7606   22.6923 C   0  0  2  0  0  0  0  0  0  0  0  0
    6.3072    0.3768   17.3417 N   0  0  0  0  0  0  0  0  0  0  0  0
    8.0155   -2.1541   22.4325 N   0  0  0  0  0  0  0  0  0  0  0  0
    7.2305   -0.6898   20.7785 N   0  0  0  0  0  0  0  0  0  0  0  0
    8.8050    1.0440   21.0913 O   0  0  0  0  0  0  0  0  0  0  0  0
    6.1341   -2.7710   21.1540 O   0  0  0  0  0  0  0  0  0  0  0  0
    9.9496    0.5589   24.9527 O   0  0  0  0  0  0  0  0  0  0  0  0
   13.4282   -2.1469   21.1116 Cl  0  0  0  0  0  0  0  0  0  0  0  0
    2.5443    3.3508   20.6368 H   0  0  0  0  0  0  0  0  0  0  0  0
    3.5189    2.1137   22.5166 H   0  0  0  0  0  0  0  0  0  0  0  0
    3.3421    2.9744   18.3363 H   0  0  0  0  0  0  0  0  0  0  0  0
    5.3131    0.4893   22.1569 H   0  0  0  0  0  0  0  0  0  0  0  0
   12.5017    0.6057   24.9721 H   0  0  0  0  0  0  0  0  0  0  0  0
   13.9925   -0.5160   23.3772 H   0  0  0  0  0  0  0  0  0  0  0  0
   10.6033   -2.0231   21.2279 H   0  0  0  0  0  0  0  0  0  0  0  0
    4.9151    1.7511   16.7471 H   0  0  0  0  0  0  0  0  0  0  0  0
    7.6455   -0.9765   18.1038 H   0  0  0  0  0  0  0  0  0  0  0  0
    7.7129   -0.8886   24.6591 H   0  0  0  0  0  0  0  0  0  0  0  0
    6.8761    0.2359   23.5738 H   0  0  0  0  0  0  0  0  0  0  0  0
    8.8035    1.8517   23.8110 H   0  0  0  0  0  0  0  0  0  0  0  0
    8.1359    1.3974   25.3762 H   0  0  0  0  0  0  0  0  0  0  0  0
    8.2130   -2.9427   22.8509 H   0  0  0  0  0  0  0  0  0  0  0  0
  1  2  2  0  0  0  0
  1  3  1  0  0  0  0
  2  4  1  0  0  0  0
  3 10  2  0  0  0  0
  4 11  2  0  0  0  0
  5  6  2  0  0  0  0
  5 14  1  0  0  0  0
  6 15  1  0  0  0  0
  7 12  1  0  0  0  0
  7 15  2  0  0  0  0
  8 10  1  0  0  0  0
  8 21  2  0  0  0  0
  9 13  2  0  0  0  0
  9 21  1  0  0  0  0
 10 11  1  0  0  0  0
 11 13  1  0  0  0  0
 12 14  2  0  0  0  0
 12 20  1  6  0  0  0
 13 23  1  0  0  0  0
 14 26  1  0  0  0  0
 15 27  1  0  0  0  0
 16 20  1  1  0  0  0
 16 23  1  0  0  0  0
 16 24  2  0  0  0  0
 17 22  1  0  0  0  0
 17 23  1  0  0  0  0
 17 25  2  0  0  0  0
 18 19  1  0  0  0  0
 18 20  1  1  0  0  0
 19 26  1  0  0  0  0
 20 22  1  6  0  0  0
  1 28  1  0  0  0  0
  2 29  1  0  0  0  0
  3 30  1  0  0  0  0
  4 31  1  0  0  0  0
  5 32  1  0  0  0  0
  6 33  1  0  0  0  0
  7 34  1  0  0  0  0
  8 35  1  0  0  0  0
  9 36  1  0  0  0  0
 18 37  1  0  0  0  0
 18 38  1  0  0  0  0
 19 39  1  0  0  0  0
 19 40  1  0  0  0  0
 22 41  1  0  0  0  0
M  END
> <scaffold>
chromane-5spiro-isoquinoline

> <compound>
VLA-UCB-34f3ed0c-11

> <compound_smiles>
c1ccc2c(c1)cncc2N3C(=O)[C@@]4(CCOc5c4cc(cc5)Cl)NC3=O

> <enantiomer_smiles>
c1ccc2c(c1)cncc2N3C(=O)[C@@]4(CCOc5c4cc(cc5)Cl)NC3=O

> <clash_score>
0

> <docking_score>
3.4028234663852886e+38

> <overlap_score>
1.0

> <MMFF_internal_energy>
69.75914989530838

> <docked_smiles>
c1ccc2c(c1)cncc2N3C(=O)[C@@]4(CCOc5c4cc(cc5)Cl)NC3=O

$$$$
MAT-POS-90505e2b-1_1
  -OEChem-01042202303D

 40 44  0     1  0  0  0  0  0999 V2000
    3.3444    2.6278   20.4409 C   0  0  0  0  0  0  0  0  0  0  0  0
    3.8974    1.9290   21.5048 C   0  0  0  0  0  0  0  0  0  0  0  0
    3.7877    2.4205   19.1658 C   0  0  0  0  0  0  0  0  0  0  0  0
    4.8986    1.0232   21.2985 C   0  0  0  0  0  0  0  0  0  0  0  0
   12.0781    0.0316   24.1532 C   0  0  0  0  0  0  0  0  0  0  0  0
   12.9147   -0.6032   23.2559 C   0  0  0  0  0  0  0  0  0  0  0  0
   11.0005   -1.4332   22.0435 C   0  0  0  0  0  0  0  0  0  0  0  0
    5.3288    1.2339   17.6062 C   0  0  0  0  0  0  0  0  0  0  0  0
    6.8449   -0.2893   18.3747 C   0  0  0  0  0  0  0  0  0  0  0  0
    4.8238    1.4906   18.9051 C   0  0  0  0  0  0  0  0  0  0  0  0
    5.3995    0.7732   19.9944 C   0  0  0  0  0  0  0  0  0  0  0  0
   10.1421   -0.7766   22.9242 C   0  0  0  0  0  0  0  0  0  0  0  0
    6.4452   -0.1472   19.6975 C   0  0  0  0  0  0  0  0  0  0  0  0
   10.7056   -0.0626   23.9890 C   0  0  0  0  0  0  0  0  0  0  0  0
   12.3697   -1.3298   22.2224 C   0  0  0  0  0  0  0  0  0  0  0  0
    8.2504    0.0168   21.4265 C   0  0  0  0  0  0  0  0  0  0  0  0
    6.9880   -1.9367   21.3575 C   0  0  0  0  0  0  0  0  0  0  0  0
    7.8737   -0.1194   23.8825 C   0  0  0  0  0  0  0  0  0  0  0  0
    8.6625    1.0133   24.4989 C   0  0  0  0  0  0  0  0  0  0  0  0
    8.6253   -0.7606   22.6923 C   0  0  3  0  0  0  0  0  0  0  0  0
    6.3072    0.3768   17.3417 N   0  0  0  0  0  0  0  0  0  0  0  0
    7.2305   -0.6898   20.7785 N   0  0  0  0  0  0  0  0  0  0  0  0
    8.7641    1.0821   21.1259 O   0  0  0  0  0  0  0  0  0  0  0  0
    6.1896   -2.7899   21.1489 O   0  0  0  0  0  0  0  0  0  0  0  0
    9.9496    0.5589   24.9527 O   0  0  0  0  0  0  0  0  0  0  0  0
    8.0155   -2.1541   22.4325 O   0  0  0  0  0  0  0  0  0  0  0  0
   13.4279   -2.1382   21.1048 Cl  0  0  0  0  0  0  0  0  0  0  0  0
    2.5443    3.3508   20.6368 H   0  0  0  0  0  0  0  0  0  0  0  0
    3.5189    2.1137   22.5166 H   0  0  0  0  0  0  0  0  0  0  0  0
    3.3421    2.9744   18.3363 H   0  0  0  0  0  0  0  0  0  0  0  0
    5.3131    0.4893   22.1569 H   0  0  0  0  0  0  0  0  0  0  0  0
   12.5013    0.5926   24.9814 H   0  0  0  0  0  0  0  0  0  0  0  0
   13.9924   -0.5198   23.3801 H   0  0  0  0  0  0  0  0  0  0  0  0
   10.5999   -2.0166   21.2241 H   0  0  0  0  0  0  0  0  0  0  0  0
    4.9151    1.7511   16.7471 H   0  0  0  0  0  0  0  0  0  0  0  0
    7.6455   -0.9765   18.1038 H   0  0  0  0  0  0  0  0  0  0  0  0
    7.6295   -0.8811   24.6423 H   0  0  0  0  0  0  0  0  0  0  0  0
    6.9027    0.2645   23.5217 H   0  0  0  0  0  0  0  0  0  0  0  0
    8.8461    1.7868   23.7502 H   0  0  0  0  0  0  0  0  0  0  0  0
    8.1379    1.4835   25.3343 H   0  0  0  0  0  0  0  0  0  0  0  0
  1  2  2  0  0  0  0
  1  3  1  0  0  0  0
  2  4  1  0  0  0  0
  3 10  2  0  0  0  0
  4 11  2  0  0  0  0
  5  6  2  0  0  0  0
  5 14  1  0  0  0  0
  6 15  1  0  0  0  0
  7 12  1  0  0  0  0
  7 15  2  0  0  0  0
  8 10  1  0  0  0  0
  8 21  2  0  0  0  0
  9 13  2  0  0  0  0
  9 21  1  0  0  0  0
 10 11  1  0  0  0  0
 11 13  1  0  0  0  0
 12 14  2  0  0  0  0
 12 20  1  0  0  0  0
 13 22  1  0  0  0  0
 14 25  1  0  0  0  0
 15 27  1  0  0  0  0
 16 20  1  0  0  0  0
 16 22  1  0  0  0  0
 16 23  2  0  0  0  0
 17 22  1  0  0  0  0
 17 24  2  0  0  0  0
 17 26  1  0  0  0  0
 18 19  1  0  0  0  0
 18 20  1  0  0  0  0
 19 25  1  0  0  0  0
 20 26  1  0  0  0  0
  1 28  1  0  0  0  0
  2 29  1  0  0  0  0
  3 30  1  0  0  0  0
  4 31  1  0  0  0  0
  5 32  1  0  0  0  0
  6 33  1  0  0  0  0
  7 34  1  0  0  0  0
  8 35  1  0  0  0  0
  9 36  1  0  0  0  0
 18 37  1  0  0  0  0
 18 38  1  0  0  0  0
 19 39  1  0  0  0  0
 19 40  1  0  0  0  0
M  END
> <scaffold>
chromane-5spiro-isoquinoline

> <compound>
MAT-POS-90505e2b-1

> <compound_smiles>
c1ccc2c(c1)cncc2N3C(=O)C4(CCOc5c4cc(cc5)Cl)OC3=O

> <enantiomer_smiles>
c1ccc2c(c1)cncc2N3C(=O)[C@]4(CCOc5c4cc(cc5)Cl)OC3=O

> <clash_score>
0

> <docking_score>
3.4028234663852886e+38

> <overlap_score>
1.0

> <MMFF_internal_energy>
74.17972293973827

> <docked_smiles>
c1ccc2c(c1)cncc2N3C(=O)[C@]4(CCOc5c4cc(cc5)Cl)OC3=O

$$$$
MAT-POS-983b399a-1_1
  -OEChem-01042202303D

 43 47  0     1  0  0  0  0  0999 V2000
    3.3444    2.6278   20.4409 C   0  0  0  0  0  0  0  0  0  0  0  0
    3.8974    1.9290   21.5048 C   0  0  0  0  0  0  0  0  0  0  0  0
    3.7877    2.4205   19.1658 C   0  0  0  0  0  0  0  0  0  0  0  0
    4.8986    1.0232   21.2985 C   0  0  0  0  0  0  0  0  0  0  0  0
   12.0781    0.0316   24.1532 C   0  0  0  0  0  0  0  0  0  0  0  0
   12.9147   -0.6032   23.2559 C   0  0  0  0  0  0  0  0  0  0  0  0
   11.0005   -1.4332   22.0435 C   0  0  0  0  0  0  0  0  0  0  0  0
    5.3288    1.2339   17.6062 C   0  0  0  0  0  0  0  0  0  0  0  0
    6.8449   -0.2893   18.3747 C   0  0  0  0  0  0  0  0  0  0  0  0
    4.8238    1.4906   18.9051 C   0  0  0  0  0  0  0  0  0  0  0  0
    5.3995    0.7732   19.9944 C   0  0  0  0  0  0  0  0  0  0  0  0
   10.1421   -0.7766   22.9242 C   0  0  0  0  0  0  0  0  0  0  0  0
    6.4452   -0.1472   19.6975 C   0  0  0  0  0  0  0  0  0  0  0  0
   10.7056   -0.0626   23.9890 C   0  0  0  0  0  0  0  0  0  0  0  0
   12.3697   -1.3298   22.2224 C   0  0  0  0  0  0  0  0  0  0  0  0
    8.2504    0.0168   21.4265 C   0  0  0  0  0  0  0  0  0  0  0  0
    8.0155   -2.1541   22.4325 C   0  0  0  0  0  0  0  0  0  0  0  0
    7.8737   -0.1194   23.8825 C   0  0  0  0  0  0  0  0  0  0  0  0
    6.9880   -1.9367   21.3575 C   0  0  0  0  0  0  0  0  0  0  0  0
    8.6625    1.0133   24.4989 C   0  0  0  0  0  0  0  0  0  0  0  0
    8.6253   -0.7606   22.6923 C   0  0  3  0  0  0  0  0  0  0  0  0
    6.3072    0.3768   17.3417 N   0  0  0  0  0  0  0  0  0  0  0  0
    7.2305   -0.6898   20.7785 N   0  0  0  0  0  0  0  0  0  0  0  0
    8.7618    1.0918   21.1277 O   0  0  0  0  0  0  0  0  0  0  0  0
    9.9496    0.5589   24.9527 O   0  0  0  0  0  0  0  0  0  0  0  0
   13.4293   -2.1427   21.1094 Cl  0  0  0  0  0  0  0  0  0  0  0  0
    2.5443    3.3508   20.6368 H   0  0  0  0  0  0  0  0  0  0  0  0
    3.5189    2.1137   22.5166 H   0  0  0  0  0  0  0  0  0  0  0  0
    3.3421    2.9744   18.3363 H   0  0  0  0  0  0  0  0  0  0  0  0
    5.3131    0.4893   22.1569 H   0  0  0  0  0  0  0  0  0  0  0  0
   12.5023    0.6099   24.9687 H   0  0  0  0  0  0  0  0  0  0  0  0
   13.9928   -0.5111   23.3741 H   0  0  0  0  0  0  0  0  0  0  0  0
   10.6084   -2.0149   21.2222 H   0  0  0  0  0  0  0  0  0  0  0  0
    4.9151    1.7511   16.7471 H   0  0  0  0  0  0  0  0  0  0  0  0
    7.6455   -0.9765   18.1038 H   0  0  0  0  0  0  0  0  0  0  0  0
    7.5803   -2.6050   23.3382 H   0  0  0  0  0  0  0  0  0  0  0  0
    8.7624   -2.8757   22.0670 H   0  0  0  0  0  0  0  0  0  0  0  0
    7.7077   -0.8835   24.6616 H   0  0  0  0  0  0  0  0  0  0  0  0
    6.8779    0.2455   23.5815 H   0  0  0  0  0  0  0  0  0  0  0  0
    7.0245   -2.7517   20.5940 H   0  0  0  0  0  0  0  0  0  0  0  0
    5.9550   -1.9490   21.7817 H   0  0  0  0  0  0  0  0  0  0  0  0
    8.7995    1.8566   23.8116 H   0  0  0  0  0  0  0  0  0  0  0  0
    8.1357    1.3979   25.3786 H   0  0  0  0  0  0  0  0  0  0  0  0
  1  2  2  0  0  0  0
  1  3  1  0  0  0  0
  2  4  1  0  0  0  0
  3 10  2  0  0  0  0
  4 11  2  0  0  0  0
  5  6  2  0  0  0  0
  5 14  1  0  0  0  0
  6 15  1  0  0  0  0
  7 12  1  0  0  0  0
  7 15  2  0  0  0  0
  8 10  1  0  0  0  0
  8 22  2  0  0  0  0
  9 13  2  0  0  0  0
  9 22  1  0  0  0  0
 10 11  1  0  0  0  0
 11 13  1  0  0  0  0
 12 14  2  0  0  0  0
 12 21  1  0  0  0  0
 13 23  1  0  0  0  0
 14 25  1  0  0  0  0
 15 26  1  0  0  0  0
 16 21  1  0  0  0  0
 16 23  1  0  0  0  0
 16 24  2  0  0  0  0
 17 19  1  0  0  0  0
 17 21  1  0  0  0  0
 18 20  1  0  0  0  0
 18 21  1  0  0  0  0
 19 23  1  0  0  0  0
 20 25  1  0  0  0  0
  1 27  1  0  0  0  0
  2 28  1  0  0  0  0
  3 29  1  0  0  0  0
  4 30  1  0  0  0  0
  5 31  1  0  0  0  0
  6 32  1  0  0  0  0
  7 33  1  0  0  0  0
  8 34  1  0  0  0  0
  9 35  1  0  0  0  0
 17 36  1  0  0  0  0
 17 37  1  0  0  0  0
 18 38  1  0  0  0  0
 18 39  1  0  0  0  0
 19 40  1  0  0  0  0
 19 41  1  0  0  0  0
 20 42  1  0  0  0  0
 20 43  1  0  0  0  0
M  END
> <scaffold>
chromane-5spiro-isoquinoline

> <compound>
MAT-POS-983b399a-1

> <compound_smiles>
c1ccc2c(c1)cncc2N3CCC4(C3=O)CCOc5c4cc(cc5)Cl

> <enantiomer_smiles>
c1ccc2c(c1)cncc2N3CC[C@@]4(C3=O)CCOc5c4cc(cc5)Cl

> <clash_score>
0

> <docking_score>
3.4028234663852886e+38

> <overlap_score>
0.9739436507225037

> <MMFF_internal_energy>
107.27047470627575

> <docked_smiles>
c1ccc2c(c1)cncc2N3CC[C@@]4(C3=O)CCOc5c4cc(cc5)Cl

$$$$
DAR-DIA-6be260fc-5_1
  -OEChem-01042202303D

 44 48  0     1  0  0  0  0  0999 V2000
    3.3444    2.6278   20.4409 C   0  0  0  0  0  0  0  0  0  0  0  0
    3.8974    1.9290   21.5048 C   0  0  0  0  0  0  0  0  0  0  0  0
    3.7877    2.4205   19.1658 C   0  0  0  0  0  0  0  0  0  0  0  0
    4.8986    1.0232   21.2985 C   0  0  0  0  0  0  0  0  0  0  0  0
   12.0781    0.0316   24.1532 C   0  0  0  0  0  0  0  0  0  0  0  0
   12.9147   -0.6032   23.2559 C   0  0  0  0  0  0  0  0  0  0  0  0
   11.0005   -1.4332   22.0435 C   0  0  0  0  0  0  0  0  0  0  0  0
    5.3288    1.2339   17.6062 C   0  0  0  0  0  0  0  0  0  0  0  0
    6.8449   -0.2893   18.3747 C   0  0  0  0  0  0  0  0  0  0  0  0
    4.8238    1.4906   18.9051 C   0  0  0  0  0  0  0  0  0  0  0  0
    5.3995    0.7732   19.9944 C   0  0  0  0  0  0  0  0  0  0  0  0
   10.1421   -0.7766   22.9242 C   0  0  0  0  0  0  0  0  0  0  0  0
   10.7056   -0.0626   23.9890 C   0  0  0  0  0  0  0  0  0  0  0  0
    6.4452   -0.1472   19.6975 C   0  0  0  0  0  0  0  0  0  0  0  0
   12.3697   -1.3298   22.2224 C   0  0  0  0  0  0  0  0  0  0  0  0
    8.2504    0.0168   21.4265 C   0  0  0  0  0  0  0  0  0  0  0  0
    7.8737   -0.1194   23.8825 C   0  0  0  0  0  0  0  0  0  0  0  0
    8.0155   -2.1541   22.4325 C   0  0  0  0  0  0  0  0  0  0  0  0
    8.6625    1.0133   24.4989 C   0  0  0  0  0  0  0  0  0  0  0  0
    6.9880   -1.9367   21.3575 C   0  0  0  0  0  0  0  0  0  0  0  0
    8.6253   -0.7606   22.6923 C   0  0  3  0  0  0  0  0  0  0  0  0
    6.3072    0.3768   17.3417 N   0  0  0  0  0  0  0  0  0  0  0  0
    9.9496    0.5589   24.9527 N   0  0  0  0  0  0  0  0  0  0  0  0
    7.2305   -0.6898   20.7785 N   0  0  0  0  0  0  0  0  0  0  0  0
    8.8302    1.0404   21.0790 O   0  0  0  0  0  0  0  0  0  0  0  0
   13.4285   -2.1443   21.1096 Cl  0  0  0  0  0  0  0  0  0  0  0  0
    2.5443    3.3508   20.6368 H   0  0  0  0  0  0  0  0  0  0  0  0
    3.5189    2.1137   22.5166 H   0  0  0  0  0  0  0  0  0  0  0  0
    3.3421    2.9744   18.3363 H   0  0  0  0  0  0  0  0  0  0  0  0
    5.3131    0.4893   22.1569 H   0  0  0  0  0  0  0  0  0  0  0  0
   12.5060    0.6010   24.9673 H   0  0  0  0  0  0  0  0  0  0  0  0
   13.9925   -0.5163   23.3765 H   0  0  0  0  0  0  0  0  0  0  0  0
   10.6055   -2.0200   21.2254 H   0  0  0  0  0  0  0  0  0  0  0  0
    4.9151    1.7511   16.7471 H   0  0  0  0  0  0  0  0  0  0  0  0
    7.6455   -0.9765   18.1038 H   0  0  0  0  0  0  0  0  0  0  0  0
    7.6801   -0.8795   24.6546 H   0  0  0  0  0  0  0  0  0  0  0  0
    6.8846    0.2433   23.5732 H   0  0  0  0  0  0  0  0  0  0  0  0
    7.5168   -2.5447   23.3338 H   0  0  0  0  0  0  0  0  0  0  0  0
    8.7636   -2.9048   22.1426 H   0  0  0  0  0  0  0  0  0  0  0  0
    8.7960    1.8354   23.7795 H   0  0  0  0  0  0  0  0  0  0  0  0
    8.1092    1.4352   25.3510 H   0  0  0  0  0  0  0  0  0  0  0  0
    7.0603   -2.7247   20.5712 H   0  0  0  0  0  0  0  0  0  0  0  0
    5.9529   -1.9963   21.7709 H   0  0  0  0  0  0  0  0  0  0  0  0
   10.3339    0.8744   25.7908 H   0  0  0  0  0  0  0  0  0  0  0  0
  1  2  2  0  0  0  0
  1  3  1  0  0  0  0
  2  4  1  0  0  0  0
  3 10  2  0  0  0  0
  4 11  2  0  0  0  0
  5  6  2  0  0  0  0
  5 13  1  0  0  0  0
  6 15  1  0  0  0  0
  7 12  1  0  0  0  0
  7 15  2  0  0  0  0
  8 10  1  0  0  0  0
  8 22  2  0  0  0  0
  9 14  2  0  0  0  0
  9 22  1  0  0  0  0
 10 11  1  0  0  0  0
 11 14  1  0  0  0  0
 12 13  2  0  0  0  0
 12 21  1  0  0  0  0
 13 23  1  0  0  0  0
 14 24  1  0  0  0  0
 15 26  1  0  0  0  0
 16 21  1  0  0  0  0
 16 24  1  0  0  0  0
 16 25  2  0  0  0  0
 17 19  1  0  0  0  0
 17 21  1  0  0  0  0
 18 20  1  0  0  0  0
 18 21  1  0  0  0  0
 19 23  1  0  0  0  0
 20 24  1  0  0  0  0
  1 27  1  0  0  0  0
  2 28  1  0  0  0  0
  3 29  1  0  0  0  0
  4 30  1  0  0  0  0
  5 31  1  0  0  0  0
  6 32  1  0  0  0  0
  7 33  1  0  0  0  0
  8 34  1  0  0  0  0
  9 35  1  0  0  0  0
 17 36  1  0  0  0  0
 17 37  1  0  0  0  0
 18 38  1  0  0  0  0
 18 39  1  0  0  0  0
 19 40  1  0  0  0  0
 19 41  1  0  0  0  0
 20 42  1  0  0  0  0
 20 43  1  0  0  0  0
 23 44  1  0  0  0  0
M  END
> <scaffold>
tetralinlike-5spiro-isoquinoline

> <compound>
DAR-DIA-6be260fc-5

> <compound_smiles>
c1ccc2c(c1)cncc2N3CCC4(C3=O)CCNc5c4cc(cc5)Cl

> <enantiomer_smiles>
c1ccc2c(c1)cncc2N3CC[C@]4(C3=O)CCNc5c4cc(cc5)Cl

> <clash_score>
0

> <docking_score>
3.4028234663852886e+38

> <overlap_score>
0.9739408493041992

> <MMFF_internal_energy>
99.52873348611271

> <docked_smiles>
c1ccc2c(c1)cncc2N3CC[C@]4(C3=O)CCNc5c4cc(cc5)Cl

$$$$
VLA-UCB-50c39ae8-2_1
  -OEChem-01042202303D

 42 46  0     1  0  0  0  0  0999 V2000
    3.3444    2.6278   20.4409 C   0  0  0  0  0  0  0  0  0  0  0  0
    3.8974    1.9290   21.5048 C   0  0  0  0  0  0  0  0  0  0  0  0
    3.7877    2.4205   19.1658 C   0  0  0  0  0  0  0  0  0  0  0  0
    4.8986    1.0232   21.2985 C   0  0  0  0  0  0  0  0  0  0  0  0
   12.0781    0.0316   24.1532 C   0  0  0  0  0  0  0  0  0  0  0  0
   12.9147   -0.6032   23.2559 C   0  0  0  0  0  0  0  0  0  0  0  0
   11.0005   -1.4332   22.0435 C   0  0  0  0  0  0  0  0  0  0  0  0
    5.3288    1.2339   17.6062 C   0  0  0  0  0  0  0  0  0  0  0  0
    6.8449   -0.2893   18.3747 C   0  0  0  0  0  0  0  0  0  0  0  0
    4.8238    1.4906   18.9051 C   0  0  0  0  0  0  0  0  0  0  0  0
    5.3995    0.7732   19.9944 C   0  0  0  0  0  0  0  0  0  0  0  0
   10.1421   -0.7766   22.9242 C   0  0  0  0  0  0  0  0  0  0  0  0
    6.4452   -0.1472   19.6975 C   0  0  0  0  0  0  0  0  0  0  0  0
   10.7056   -0.0626   23.9890 C   0  0  0  0  0  0  0  0  0  0  0  0
   12.3697   -1.3298   22.2224 C   0  0  0  0  0  0  0  0  0  0  0  0
    6.9880   -1.9367   21.3575 C   0  0  0  0  0  0  0  0  0  0  0  0
    8.2504    0.0168   21.4265 C   0  0  0  0  0  0  0  0  0  0  0  0
    8.0155   -2.1541   22.4325 C   0  0  0  0  0  0  0  0  0  0  0  0
    7.8737   -0.1194   23.8825 C   0  0  0  0  0  0  0  0  0  0  0  0
    8.6625    1.0133   24.4989 C   0  0  0  0  0  0  0  0  0  0  0  0
    8.6253   -0.7606   22.6923 C   0  0  1  0  0  0  0  0  0  0  0  0
    6.3072    0.3768   17.3417 N   0  0  0  0  0  0  0  0  0  0  0  0
    7.2305   -0.6898   20.7785 N   0  0  0  0  0  0  0  0  0  0  0  0
    6.1228   -2.7617   21.1005 O   0  0  0  0  0  0  0  0  0  0  0  0
    8.7952    1.0566   21.0907 O   0  0  0  0  0  0  0  0  0  0  0  0
    9.9496    0.5589   24.9527 O   0  0  0  0  0  0  0  0  0  0  0  0
   13.4288   -2.1429   21.1092 Cl  0  0  0  0  0  0  0  0  0  0  0  0
    2.5443    3.3508   20.6368 H   0  0  0  0  0  0  0  0  0  0  0  0
    3.5189    2.1137   22.5166 H   0  0  0  0  0  0  0  0  0  0  0  0
    3.3421    2.9744   18.3363 H   0  0  0  0  0  0  0  0  0  0  0  0
    5.3131    0.4893   22.1569 H   0  0  0  0  0  0  0  0  0  0  0  0
   12.5028    0.6090   24.9690 H   0  0  0  0  0  0  0  0  0  0  0  0
   13.9928   -0.5111   23.3739 H   0  0  0  0  0  0  0  0  0  0  0  0
   10.6076   -2.0165   21.2235 H   0  0  0  0  0  0  0  0  0  0  0  0
    4.9151    1.7511   16.7471 H   0  0  0  0  0  0  0  0  0  0  0  0
    7.6455   -0.9765   18.1038 H   0  0  0  0  0  0  0  0  0  0  0  0
    7.5396   -2.5804   23.3251 H   0  0  0  0  0  0  0  0  0  0  0  0
    8.7330   -2.8929   22.0546 H   0  0  0  0  0  0  0  0  0  0  0  0
    7.7092   -0.8827   24.6634 H   0  0  0  0  0  0  0  0  0  0  0  0
    6.8765    0.2420   23.5795 H   0  0  0  0  0  0  0  0  0  0  0  0
    8.7990    1.8573   23.8128 H   0  0  0  0  0  0  0  0  0  0  0  0
    8.1352    1.3967   25.3789 H   0  0  0  0  0  0  0  0  0  0  0  0
  1  2  2  0  0  0  0
  1  3  1  0  0  0  0
  2  4  1  0  0  0  0
  3 10  2  0  0  0  0
  4 11  2  0  0  0  0
  5  6  2  0  0  0  0
  5 14  1  0  0  0  0
  6 15  1  0  0  0  0
  7 12  1  0  0  0  0
  7 15  2  0  0  0  0
  8 10  1  0  0  0  0
  8 22  2  0  0  0  0
  9 13  2  0  0  0  0
  9 22  1  0  0  0  0
 10 11  1  0  0  0  0
 11 13  1  0  0  0  0
 12 14  2  0  0  0  0
 12 21  1  6  0  0  0
 13 23  1  0  0  0  0
 14 26  1  0  0  0  0
 15 27  1  0  0  0  0
 16 18  1  0  0  0  0
 16 23  1  0  0  0  0
 16 24  2  0  0  0  0
 17 21  1  1  0  0  0
 17 23  1  0  0  0  0
 17 25  2  0  0  0  0
 18 21  1  1  0  0  0
 19 20  1  0  0  0  0
 19 21  1  6  0  0  0
 20 26  1  0  0  0  0
  1 28  1  0  0  0  0
  2 29  1  0  0  0  0
  3 30  1  0  0  0  0
  4 31  1  0  0  0  0
  5 32  1  0  0  0  0
  6 33  1  0  0  0  0
  7 34  1  0  0  0  0
  8 35  1  0  0  0  0
  9 36  1  0  0  0  0
 18 37  1  0  0  0  0
 18 38  1  0  0  0  0
 19 39  1  0  0  0  0
 19 40  1  0  0  0  0
 20 41  1  0  0  0  0
 20 42  1  0  0  0  0
M  END
> <scaffold>
chromane-5spiro-isoquinoline

> <compound>
VLA-UCB-50c39ae8-2

> <compound_smiles>
c1ccc2c(c1)cncc2N3C(=O)C[C@@]4(C3=O)CCOc5c4cc(cc5)Cl

> <enantiomer_smiles>
c1ccc2c(c1)cncc2N3C(=O)C[C@@]4(C3=O)CCOc5c4cc(cc5)Cl

> <clash_score>
0

> <docking_score>
3.4028234663852886e+38

> <overlap_score>
1.0

> <MMFF_internal_energy>
76.27787128279148

> <docked_smiles>
c1ccc2c(c1)cncc2N3C(=O)C[C@@]4(C3=O)CCOc5c4cc(cc5)Cl

$$$$
BEN-BAS-c2bc0d80-3_1
  -OEChem-01042202303D

 42 46  0     1  0  0  0  0  0999 V2000
    3.3444    2.6278   20.4409 C   0  0  0  0  0  0  0  0  0  0  0  0
    3.8974    1.9290   21.5048 C   0  0  0  0  0  0  0  0  0  0  0  0
    3.7877    2.4205   19.1658 C   0  0  0  0  0  0  0  0  0  0  0  0
    4.8986    1.0232   21.2985 C   0  0  0  0  0  0  0  0  0  0  0  0
   12.0781    0.0316   24.1532 C   0  0  0  0  0  0  0  0  0  0  0  0
   12.9147   -0.6032   23.2559 C   0  0  0  0  0  0  0  0  0  0  0  0
   11.0005   -1.4332   22.0435 C   0  0  0  0  0  0  0  0  0  0  0  0
    5.3288    1.2339   17.6062 C   0  0  0  0  0  0  0  0  0  0  0  0
    6.8449   -0.2893   18.3747 C   0  0  0  0  0  0  0  0  0  0  0  0
    4.8238    1.4906   18.9051 C   0  0  0  0  0  0  0  0  0  0  0  0
    5.3995    0.7732   19.9944 C   0  0  0  0  0  0  0  0  0  0  0  0
   10.1421   -0.7766   22.9242 C   0  0  0  0  0  0  0  0  0  0  0  0
    6.4452   -0.1472   19.6975 C   0  0  0  0  0  0  0  0  0  0  0  0
   10.7056   -0.0626   23.9890 C   0  0  0  0  0  0  0  0  0  0  0  0
   12.3697   -1.3298   22.2224 C   0  0  0  0  0  0  0  0  0  0  0  0
    8.2504    0.0168   21.4265 C   0  0  0  0  0  0  0  0  0  0  0  0
    7.8737   -0.1194   23.8825 C   0  0  0  0  0  0  0  0  0  0  0  0
    8.0155   -2.1541   22.4325 C   0  0  0  0  0  0  0  0  0  0  0  0
    8.6625    1.0133   24.4989 C   0  0  0  0  0  0  0  0  0  0  0  0
    8.6253   -0.7606   22.6923 C   0  0  3  0  0  0  0  0  0  0  0  0
    6.3072    0.3768   17.3417 N   0  0  0  0  0  0  0  0  0  0  0  0
    6.9880   -1.9367   21.3575 N   0  0  0  0  0  0  0  0  0  0  0  0
    7.2305   -0.6898   20.7785 N   0  0  0  0  0  0  0  0  0  0  0  0
    8.7746    1.0827   21.1164 O   0  0  0  0  0  0  0  0  0  0  0  0
    9.9496    0.5589   24.9527 O   0  0  0  0  0  0  0  0  0  0  0  0
   13.4284   -2.1410   21.1073 Cl  0  0  0  0  0  0  0  0  0  0  0  0
    2.5443    3.3508   20.6368 H   0  0  0  0  0  0  0  0  0  0  0  0
    3.5189    2.1137   22.5166 H   0  0  0  0  0  0  0  0  0  0  0  0
    3.3421    2.9744   18.3363 H   0  0  0  0  0  0  0  0  0  0  0  0
    5.3131    0.4893   22.1569 H   0  0  0  0  0  0  0  0  0  0  0  0
   12.5016    0.5923   24.9808 H   0  0  0  0  0  0  0  0  0  0  0  0
   13.9925   -0.5211   23.3809 H   0  0  0  0  0  0  0  0  0  0  0  0
   10.6034   -2.0169   21.2242 H   0  0  0  0  0  0  0  0  0  0  0  0
    4.9151    1.7511   16.7471 H   0  0  0  0  0  0  0  0  0  0  0  0
    7.6455   -0.9765   18.1038 H   0  0  0  0  0  0  0  0  0  0  0  0
    7.6247   -0.8746   24.6499 H   0  0  0  0  0  0  0  0  0  0  0  0
    6.9024    0.2765   23.5286 H   0  0  0  0  0  0  0  0  0  0  0  0
    8.7536   -2.8688   22.0543 H   0  0  0  0  0  0  0  0  0  0  0  0
    7.5449   -2.5958   23.3128 H   0  0  0  0  0  0  0  0  0  0  0  0
    8.8475    1.7867   23.7492 H   0  0  0  0  0  0  0  0  0  0  0  0
    8.1386    1.4859   25.3345 H   0  0  0  0  0  0  0  0  0  0  0  0
    7.1109   -2.6634   20.6441 H   0  0  0  0  0  0  0  0  0  0  0  0
  1  2  2  0  0  0  0
  1  3  1  0  0  0  0
  2  4  1  0  0  0  0
  3 10  2  0  0  0  0
  4 11  2  0  0  0  0
  5  6  2  0  0  0  0
  5 14  1  0  0  0  0
  6 15  1  0  0  0  0
  7 12  1  0  0  0  0
  7 15  2  0  0  0  0
  8 10  1  0  0  0  0
  8 21  2  0  0  0  0
  9 13  2  0  0  0  0
  9 21  1  0  0  0  0
 10 11  1  0  0  0  0
 11 13  1  0  0  0  0
 12 14  2  0  0  0  0
 12 20  1  0  0  0  0
 13 23  1  0  0  0  0
 14 25  1  0  0  0  0
 15 26  1  0  0  0  0
 16 20  1  0  0  0  0
 16 23  1  0  0  0  0
 16 24  2  0  0  0  0
 17 19  1  0  0  0  0
 17 20  1  0  0  0  0
 18 20  1  0  0  0  0
 18 22  1  0  0  0  0
 19 25  1  0  0  0  0
 22 23  1  0  0  0  0
  1 27  1  0  0  0  0
  2 28  1  0  0  0  0
  3 29  1  0  0  0  0
  4 30  1  0  0  0  0
  5 31  1  0  0  0  0
  6 32  1  0  0  0  0
  7 33  1  0  0  0  0
  8 34  1  0  0  0  0
  9 35  1  0  0  0  0
 17 36  1  0  0  0  0
 17 37  1  0  0  0  0
 18 38  1  0  0  0  0
 18 39  1  0  0  0  0
 19 40  1  0  0  0  0
 19 41  1  0  0  0  0
 22 42  1  0  0  0  0
M  END
> <scaffold>
chromane-5spiro-isoquinoline

> <compound>
BEN-BAS-c2bc0d80-3

> <compound_smiles>
c1ccc2c(c1)cncc2N3C(=O)C4(CCOc5c4cc(cc5)Cl)CN3

> <enantiomer_smiles>
c1ccc2c(c1)cncc2N3C(=O)[C@@]4(CCOc5c4cc(cc5)Cl)CN3

> <clash_score>
0

> <docking_score>
3.4028234663852886e+38

> <overlap_score>
0.9739441275596619

> <MMFF_internal_energy>
145.1188735833426

> <docked_smiles>
c1ccc2c(c1)cncc2N3C(=O)[C@@]4(CCOc5c4cc(cc5)Cl)CN3

$$$$
ALP-POS-477dc5b7-4_1
  -OEChem-01042202303D

 43 47  0     1  0  0  0  0  0999 V2000
    3.3444    2.6278   20.4409 C   0  0  0  0  0  0  0  0  0  0  0  0
    3.8974    1.9290   21.5048 C   0  0  0  0  0  0  0  0  0  0  0  0
    3.7877    2.4205   19.1658 C   0  0  0  0  0  0  0  0  0  0  0  0
    4.8986    1.0232   21.2985 C   0  0  0  0  0  0  0  0  0  0  0  0
   12.0781    0.0316   24.1532 C   0  0  0  0  0  0  0  0  0  0  0  0
   12.9147   -0.6032   23.2559 C   0  0  0  0  0  0  0  0  0  0  0  0
   11.0005   -1.4332   22.0435 C   0  0  0  0  0  0  0  0  0  0  0  0
    5.3288    1.2339   17.6062 C   0  0  0  0  0  0  0  0  0  0  0  0
    6.8449   -0.2893   18.3747 C   0  0  0  0  0  0  0  0  0  0  0  0
    4.8238    1.4906   18.9051 C   0  0  0  0  0  0  0  0  0  0  0  0
    5.3995    0.7732   19.9944 C   0  0  0  0  0  0  0  0  0  0  0  0
   10.1421   -0.7766   22.9242 C   0  0  0  0  0  0  0  0  0  0  0  0
    6.4452   -0.1472   19.6975 C   0  0  0  0  0  0  0  0  0  0  0  0
   10.7056   -0.0626   23.9890 C   0  0  0  0  0  0  0  0  0  0  0  0
   12.3697   -1.3298   22.2224 C   0  0  0  0  0  0  0  0  0  0  0  0
    8.2504    0.0168   21.4265 C   0  0  0  0  0  0  0  0  0  0  0  0
    8.0155   -2.1541   22.4325 C   0  0  0  0  0  0  0  0  0  0  0  0
    7.8737   -0.1194   23.8825 C   0  0  0  0  0  0  0  0  0  0  0  0
    6.9880   -1.9367   21.3575 C   0  0  0  0  0  0  0  0  0  0  0  0
    8.6625    1.0133   24.4989 C   0  0  0  0  0  0  0  0  0  0  0  0
    8.6253   -0.7606   22.6923 C   0  0  3  0  0  0  0  0  0  0  0  0
    6.3072    0.3768   17.3417 N   0  0  0  0  0  0  0  0  0  0  0  0
    7.2305   -0.6898   20.7785 N   0  0  0  0  0  0  0  0  0  0  0  0
    8.7618    1.0918   21.1277 O   0  0  0  0  0  0  0  0  0  0  0  0
    9.9496    0.5589   24.9527 O   0  0  0  0  0  0  0  0  0  0  0  0
   13.4293   -2.1427   21.1094 Cl  0  0  0  0  0  0  0  0  0  0  0  0
    2.5443    3.3508   20.6368 H   0  0  0  0  0  0  0  0  0  0  0  0
    3.5189    2.1137   22.5166 H   0  0  0  0  0  0  0  0  0  0  0  0
    3.3421    2.9744   18.3363 H   0  0  0  0  0  0  0  0  0  0  0  0
    5.3131    0.4893   22.1569 H   0  0  0  0  0  0  0  0  0  0  0  0
   12.5023    0.6099   24.9687 H   0  0  0  0  0  0  0  0  0  0  0  0
   13.9928   -0.5111   23.3741 H   0  0  0  0  0  0  0  0  0  0  0  0
   10.6084   -2.0149   21.2222 H   0  0  0  0  0  0  0  0  0  0  0  0
    4.9151    1.7511   16.7471 H   0  0  0  0  0  0  0  0  0  0  0  0
    7.6455   -0.9765   18.1038 H   0  0  0  0  0  0  0  0  0  0  0  0
    7.5803   -2.6050   23.3382 H   0  0  0  0  0  0  0  0  0  0  0  0
    8.7624   -2.8757   22.0670 H   0  0  0  0  0  0  0  0  0  0  0  0
    7.7077   -0.8835   24.6616 H   0  0  0  0  0  0  0  0  0  0  0  0
    6.8779    0.2455   23.5815 H   0  0  0  0  0  0  0  0  0  0  0  0
    7.0245   -2.7517   20.5940 H   0  0  0  0  0  0  0  0  0  0  0  0
    5.9550   -1.9490   21.7817 H   0  0  0  0  0  0  0  0  0  0  0  0
    8.7995    1.8566   23.8116 H   0  0  0  0  0  0  0  0  0  0  0  0
    8.1357    1.3979   25.3786 H   0  0  0  0  0  0  0  0  0  0  0  0
  1  2  2  0  0  0  0
  1  3  1  0  0  0  0
  2  4  1  0  0  0  0
  3 10  2  0  0  0  0
  4 11  2  0  0  0  0
  5  6  2  0  0  0  0
  5 14  1  0  0  0  0
  6 15  1  0  0  0  0
  7 12  1  0  0  0  0
  7 15  2  0  0  0  0
  8 10  1  0  0  0  0
  8 22  2  0  0  0  0
  9 13  2  0  0  0  0
  9 22  1  0  0  0  0
 10 11  1  0  0  0  0
 11 13  1  0  0  0  0
 12 14  2  0  0  0  0
 12 21  1  0  0  0  0
 13 23  1  0  0  0  0
 14 25  1  0  0  0  0
 15 26  1  0  0  0  0
 16 21  1  0  0  0  0
 16 23  1  0  0  0  0
 16 24  2  0  0  0  0
 17 19  1  0  0  0  0
 17 21  1  0  0  0  0
 18 20  1  0  0  0  0
 18 21  1  0  0  0  0
 19 23  1  0  0  0  0
 20 25  1  0  0  0  0
  1 27  1  0  0  0  0
  2 28  1  0  0  0  0
  3 29  1  0  0  0  0
  4 30  1  0  0  0  0
  5 31  1  0  0  0  0
  6 32  1  0  0  0  0
  7 33  1  0  0  0  0
  8 34  1  0  0  0  0
  9 35  1  0  0  0  0
 17 36  1  0  0  0  0
 17 37  1  0  0  0  0
 18 38  1  0  0  0  0
 18 39  1  0  0  0  0
 19 40  1  0  0  0  0
 19 41  1  0  0  0  0
 20 42  1  0  0  0  0
 20 43  1  0  0  0  0
M  END
> <scaffold>
chromane-5spiro-isoquinoline

> <compound>
ALP-POS-477dc5b7-4

> <compound_smiles>
c1ccc2c(c1)cncc2N3CCC4(C3=O)CCOc5c4cc(cc5)Cl

> <enantiomer_smiles>
c1ccc2c(c1)cncc2N3CC[C@@]4(C3=O)CCOc5c4cc(cc5)Cl

> <clash_score>
0

> <docking_score>
3.4028234663852886e+38

> <overlap_score>
0.9739436507225037

> <MMFF_internal_energy>
107.27047470627575

> <docked_smiles>
c1ccc2c(c1)cncc2N3CC[C@@]4(C3=O)CCOc5c4cc(cc5)Cl

$$$$
BEN-BAS-c2bc0d80-6_1
  -OEChem-01042202303D

 42 46  0     1  0  0  0  0  0999 V2000
    3.3444    2.6278   20.4409 C   0  0  0  0  0  0  0  0  0  0  0  0
    3.8974    1.9290   21.5048 C   0  0  0  0  0  0  0  0  0  0  0  0
    3.7877    2.4205   19.1658 C   0  0  0  0  0  0  0  0  0  0  0  0
    4.8986    1.0232   21.2985 C   0  0  0  0  0  0  0  0  0  0  0  0
   12.0781    0.0316   24.1532 C   0  0  0  0  0  0  0  0  0  0  0  0
   12.9147   -0.6032   23.2559 C   0  0  0  0  0  0  0  0  0  0  0  0
   11.0005   -1.4332   22.0435 C   0  0  0  0  0  0  0  0  0  0  0  0
    5.3288    1.2339   17.6062 C   0  0  0  0  0  0  0  0  0  0  0  0
    6.8449   -0.2893   18.3747 C   0  0  0  0  0  0  0  0  0  0  0  0
    4.8238    1.4906   18.9051 C   0  0  0  0  0  0  0  0  0  0  0  0
    5.3995    0.7732   19.9944 C   0  0  0  0  0  0  0  0  0  0  0  0
   10.1421   -0.7766   22.9242 C   0  0  0  0  0  0  0  0  0  0  0  0
    6.4452   -0.1472   19.6975 C   0  0  0  0  0  0  0  0  0  0  0  0
   10.7056   -0.0626   23.9890 C   0  0  0  0  0  0  0  0  0  0  0  0
   12.3697   -1.3298   22.2224 C   0  0  0  0  0  0  0  0  0  0  0  0
    6.9880   -1.9367   21.3575 C   0  0  0  0  0  0  0  0  0  0  0  0
    8.2504    0.0168   21.4265 C   0  0  0  0  0  0  0  0  0  0  0  0
    8.0155   -2.1541   22.4325 C   0  0  0  0  0  0  0  0  0  0  0  0
    7.8737   -0.1194   23.8825 C   0  0  0  0  0  0  0  0  0  0  0  0
    8.6625    1.0133   24.4989 C   0  0  0  0  0  0  0  0  0  0  0  0
    8.6253   -0.7606   22.6923 C   0  0  3  0  0  0  0  0  0  0  0  0
    6.3072    0.3768   17.3417 N   0  0  0  0  0  0  0  0  0  0  0  0
    7.2305   -0.6898   20.7785 N   0  0  0  0  0  0  0  0  0  0  0  0
    6.1228   -2.7617   21.1005 O   0  0  0  0  0  0  0  0  0  0  0  0
    8.7952    1.0566   21.0907 O   0  0  0  0  0  0  0  0  0  0  0  0
    9.9496    0.5589   24.9527 O   0  0  0  0  0  0  0  0  0  0  0  0
   13.4288   -2.1429   21.1092 Cl  0  0  0  0  0  0  0  0  0  0  0  0
    2.5443    3.3508   20.6368 H   0  0  0  0  0  0  0  0  0  0  0  0
    3.5189    2.1137   22.5166 H   0  0  0  0  0  0  0  0  0  0  0  0
    3.3421    2.9744   18.3363 H   0  0  0  0  0  0  0  0  0  0  0  0
    5.3131    0.4893   22.1569 H   0  0  0  0  0  0  0  0  0  0  0  0
   12.5028    0.6090   24.9690 H   0  0  0  0  0  0  0  0  0  0  0  0
   13.9928   -0.5111   23.3739 H   0  0  0  0  0  0  0  0  0  0  0  0
   10.6076   -2.0165   21.2235 H   0  0  0  0  0  0  0  0  0  0  0  0
    4.9151    1.7511   16.7471 H   0  0  0  0  0  0  0  0  0  0  0  0
    7.6455   -0.9765   18.1038 H   0  0  0  0  0  0  0  0  0  0  0  0
    7.5396   -2.5804   23.3251 H   0  0  0  0  0  0  0  0  0  0  0  0
    8.7330   -2.8929   22.0546 H   0  0  0  0  0  0  0  0  0  0  0  0
    7.7092   -0.8827   24.6634 H   0  0  0  0  0  0  0  0  0  0  0  0
    6.8765    0.2420   23.5795 H   0  0  0  0  0  0  0  0  0  0  0  0
    8.7990    1.8573   23.8128 H   0  0  0  0  0  0  0  0  0  0  0  0
    8.1352    1.3967   25.3789 H   0  0  0  0  0  0  0  0  0  0  0  0
  1  2  2  0  0  0  0
  1  3  1  0  0  0  0
  2  4  1  0  0  0  0
  3 10  2  0  0  0  0
  4 11  2  0  0  0  0
  5  6  2  0  0  0  0
  5 14  1  0  0  0  0
  6 15  1  0  0  0  0
  7 12  1  0  0  0  0
  7 15  2  0  0  0  0
  8 10  1  0  0  0  0
  8 22  2  0  0  0  0
  9 13  2  0  0  0  0
  9 22  1  0  0  0  0
 10 11  1  0  0  0  0
 11 13  1  0  0  0  0
 12 14  2  0  0  0  0
 12 21  1  0  0  0  0
 13 23  1  0  0  0  0
 14 26  1  0  0  0  0
 15 27  1  0  0  0  0
 16 18  1  0  0  0  0
 16 23  1  0  0  0  0
 16 24  2  0  0  0  0
 17 21  1  0  0  0  0
 17 23  1  0  0  0  0
 17 25  2  0  0  0  0
 18 21  1  0  0  0  0
 19 20  1  0  0  0  0
 19 21  1  0  0  0  0
 20 26  1  0  0  0  0
  1 28  1  0  0  0  0
  2 29  1  0  0  0  0
  3 30  1  0  0  0  0
  4 31  1  0  0  0  0
  5 32  1  0  0  0  0
  6 33  1  0  0  0  0
  7 34  1  0  0  0  0
  8 35  1  0  0  0  0
  9 36  1  0  0  0  0
 18 37  1  0  0  0  0
 18 38  1  0  0  0  0
 19 39  1  0  0  0  0
 19 40  1  0  0  0  0
 20 41  1  0  0  0  0
 20 42  1  0  0  0  0
M  END
> <scaffold>
chromane-5spiro-isoquinoline

> <compound>
BEN-BAS-c2bc0d80-6

> <compound_smiles>
c1ccc2c(c1)cncc2N3C(=O)CC4(C3=O)CCOc5c4cc(cc5)Cl

> <enantiomer_smiles>
c1ccc2c(c1)cncc2N3C(=O)C[C@@]4(C3=O)CCOc5c4cc(cc5)Cl

> <clash_score>
0

> <docking_score>
3.4028234663852886e+38

> <overlap_score>
1.0

> <MMFF_internal_energy>
76.27787128279148

> <docked_smiles>
c1ccc2c(c1)cncc2N3C(=O)C[C@@]4(C3=O)CCOc5c4cc(cc5)Cl

$$$$
VLA-UCB-29506327-1_1
  -OEChem-01042202303D

 41 45  0     1  0  0  0  0  0999 V2000
    3.3444    2.6278   20.4409 C   0  0  0  0  0  0  0  0  0  0  0  0
    3.8974    1.9290   21.5048 C   0  0  0  0  0  0  0  0  0  0  0  0
    3.7877    2.4205   19.1658 C   0  0  0  0  0  0  0  0  0  0  0  0
    4.8986    1.0232   21.2985 C   0  0  0  0  0  0  0  0  0  0  0  0
   12.0781    0.0316   24.1532 C   0  0  0  0  0  0  0  0  0  0  0  0
   12.9147   -0.6032   23.2559 C   0  0  0  0  0  0  0  0  0  0  0  0
   11.0005   -1.4332   22.0435 C   0  0  0  0  0  0  0  0  0  0  0  0
    5.3288    1.2339   17.6062 C   0  0  0  0  0  0  0  0  0  0  0  0
    6.8449   -0.2893   18.3747 C   0  0  0  0  0  0  0  0  0  0  0  0
    4.8238    1.4906   18.9051 C   0  0  0  0  0  0  0  0  0  0  0  0
    5.3995    0.7732   19.9944 C   0  0  0  0  0  0  0  0  0  0  0  0
   10.1421   -0.7766   22.9242 C   0  0  0  0  0  0  0  0  0  0  0  0
    6.4452   -0.1472   19.6975 C   0  0  0  0  0  0  0  0  0  0  0  0
   10.7056   -0.0626   23.9890 C   0  0  0  0  0  0  0  0  0  0  0  0
   12.3697   -1.3298   22.2224 C   0  0  0  0  0  0  0  0  0  0  0  0
    8.2504    0.0168   21.4265 C   0  0  0  0  0  0  0  0  0  0  0  0
    6.9880   -1.9367   21.3575 C   0  0  0  0  0  0  0  0  0  0  0  0
    7.8737   -0.1194   23.8825 C   0  0  0  0  0  0  0  0  0  0  0  0
    8.6625    1.0133   24.4989 C   0  0  0  0  0  0  0  0  0  0  0  0
    8.6253   -0.7606   22.6923 C   0  0  3  0  0  0  0  0  0  0  0  0
    6.3072    0.3768   17.3417 N   0  0  0  0  0  0  0  0  0  0  0  0
    8.0155   -2.1541   22.4325 N   0  0  0  0  0  0  0  0  0  0  0  0
    7.2305   -0.6898   20.7785 N   0  0  0  0  0  0  0  0  0  0  0  0
    8.7688    1.0710   21.1185 O   0  0  0  0  0  0  0  0  0  0  0  0
    6.1657   -2.7932   21.1190 O   0  0  0  0  0  0  0  0  0  0  0  0
    9.9496    0.5589   24.9527 O   0  0  0  0  0  0  0  0  0  0  0  0
   13.4283   -2.1379   21.1050 Cl  0  0  0  0  0  0  0  0  0  0  0  0
    2.5443    3.3508   20.6368 H   0  0  0  0  0  0  0  0  0  0  0  0
    3.5189    2.1137   22.5166 H   0  0  0  0  0  0  0  0  0  0  0  0
    3.3421    2.9744   18.3363 H   0  0  0  0  0  0  0  0  0  0  0  0
    5.3131    0.4893   22.1569 H   0  0  0  0  0  0  0  0  0  0  0  0
   12.5011    0.5903   24.9831 H   0  0  0  0  0  0  0  0  0  0  0  0
   13.9924   -0.5231   23.3829 H   0  0  0  0  0  0  0  0  0  0  0  0
   10.6032   -2.0171   21.2237 H   0  0  0  0  0  0  0  0  0  0  0  0
    4.9151    1.7511   16.7471 H   0  0  0  0  0  0  0  0  0  0  0  0
    7.6455   -0.9765   18.1038 H   0  0  0  0  0  0  0  0  0  0  0  0
    7.6313   -0.8753   24.6484 H   0  0  0  0  0  0  0  0  0  0  0  0
    6.9130    0.2869   23.5186 H   0  0  0  0  0  0  0  0  0  0  0  0
    8.8471    1.7872   23.7495 H   0  0  0  0  0  0  0  0  0  0  0  0
    8.1385    1.4870   25.3339 H   0  0  0  0  0  0  0  0  0  0  0  0
    8.2306   -2.9427   22.8421 H   0  0  0  0  0  0  0  0  0  0  0  0
  1  2  2  0  0  0  0
  1  3  1  0  0  0  0
  2  4  1  0  0  0  0
  3 10  2  0  0  0  0
  4 11  2  0  0  0  0
  5  6  2  0  0  0  0
  5 14  1  0  0  0  0
  6 15  1  0  0  0  0
  7 12  1  0  0  0  0
  7 15  2  0  0  0  0
  8 10  1  0  0  0  0
  8 21  2  0  0  0  0
  9 13  2  0  0  0  0
  9 21  1  0  0  0  0
 10 11  1  0  0  0  0
 11 13  1  0  0  0  0
 12 14  2  0  0  0  0
 12 20  1  0  0  0  0
 13 23  1  0  0  0  0
 14 26  1  0  0  0  0
 15 27  1  0  0  0  0
 16 20  1  0  0  0  0
 16 23  1  0  0  0  0
 16 24  2  0  0  0  0
 17 22  1  0  0  0  0
 17 23  1  0  0  0  0
 17 25  2  0  0  0  0
 18 19  1  0  0  0  0
 18 20  1  0  0  0  0
 19 26  1  0  0  0  0
 20 22  1  0  0  0  0
  1 28  1  0  0  0  0
  2 29  1  0  0  0  0
  3 30  1  0  0  0  0
  4 31  1  0  0  0  0
  5 32  1  0  0  0  0
  6 33  1  0  0  0  0
  7 34  1  0  0  0  0
  8 35  1  0  0  0  0
  9 36  1  0  0  0  0
 18 37  1  0  0  0  0
 18 38  1  0  0  0  0
 19 39  1  0  0  0  0
 19 40  1  0  0  0  0
 22 41  1  0  0  0  0
M  END
> <scaffold>
chromane-5spiro-isoquinoline

> <compound>
VLA-UCB-29506327-1

> <compound_smiles>
c1ccc2c(c1)cncc2N3C(=O)C4(CCOc5c4cc(cc5)Cl)NC3=O

> <enantiomer_smiles>
c1ccc2c(c1)cncc2N3C(=O)[C@]4(CCOc5c4cc(cc5)Cl)NC3=O

> <clash_score>
0

> <docking_score>
3.4028234663852886e+38

> <overlap_score>
1.0

> <MMFF_internal_energy>
70.15468682002458

> <docked_smiles>
c1ccc2c(c1)cncc2N3C(=O)[C@]4(CCOc5c4cc(cc5)Cl)NC3=O

$$$$
MAT-POS-ec6d90b7-1_1
  -OEChem-01042202303D

 40 44  0     1  0  0  0  0  0999 V2000
    3.3444    2.6278   20.4409 C   0  0  0  0  0  0  0  0  0  0  0  0
    3.8974    1.9290   21.5048 C   0  0  0  0  0  0  0  0  0  0  0  0
    3.7877    2.4205   19.1658 C   0  0  0  0  0  0  0  0  0  0  0  0
    4.8986    1.0232   21.2985 C   0  0  0  0  0  0  0  0  0  0  0  0
   12.0781    0.0316   24.1532 C   0  0  0  0  0  0  0  0  0  0  0  0
   12.9147   -0.6032   23.2559 C   0  0  0  0  0  0  0  0  0  0  0  0
   11.0005   -1.4332   22.0435 C   0  0  0  0  0  0  0  0  0  0  0  0
    5.3288    1.2339   17.6062 C   0  0  0  0  0  0  0  0  0  0  0  0
    6.8449   -0.2893   18.3747 C   0  0  0  0  0  0  0  0  0  0  0  0
    4.8238    1.4906   18.9051 C   0  0  0  0  0  0  0  0  0  0  0  0
    5.3995    0.7732   19.9944 C   0  0  0  0  0  0  0  0  0  0  0  0
   10.1421   -0.7766   22.9242 C   0  0  0  0  0  0  0  0  0  0  0  0
    6.4452   -0.1472   19.6975 C   0  0  0  0  0  0  0  0  0  0  0  0
   10.7056   -0.0626   23.9890 C   0  0  0  0  0  0  0  0  0  0  0  0
   12.3697   -1.3298   22.2224 C   0  0  0  0  0  0  0  0  0  0  0  0
    8.2504    0.0168   21.4265 C   0  0  0  0  0  0  0  0  0  0  0  0
    6.9880   -1.9367   21.3575 C   0  0  0  0  0  0  0  0  0  0  0  0
    7.8737   -0.1194   23.8825 C   0  0  0  0  0  0  0  0  0  0  0  0
    8.6625    1.0133   24.4989 C   0  0  0  0  0  0  0  0  0  0  0  0
    8.6253   -0.7606   22.6923 C   0  0  2  0  0  0  0  0  0  0  0  0
    6.3072    0.3768   17.3417 N   0  0  0  0  0  0  0  0  0  0  0  0
    7.2305   -0.6898   20.7785 N   0  0  0  0  0  0  0  0  0  0  0  0
    8.8180    1.0418   21.0853 O   0  0  0  0  0  0  0  0  0  0  0  0
    6.1663   -2.7736   21.1747 O   0  0  0  0  0  0  0  0  0  0  0  0
    9.9496    0.5589   24.9527 O   0  0  0  0  0  0  0  0  0  0  0  0
    8.0155   -2.1541   22.4325 O   0  0  0  0  0  0  0  0  0  0  0  0
   13.4281   -2.1465   21.1110 Cl  0  0  0  0  0  0  0  0  0  0  0  0
    2.5443    3.3508   20.6368 H   0  0  0  0  0  0  0  0  0  0  0  0
    3.5189    2.1137   22.5166 H   0  0  0  0  0  0  0  0  0  0  0  0
    3.3421    2.9744   18.3363 H   0  0  0  0  0  0  0  0  0  0  0  0
    5.3131    0.4893   22.1569 H   0  0  0  0  0  0  0  0  0  0  0  0
   12.5014    0.6027   24.9744 H   0  0  0  0  0  0  0  0  0  0  0  0
   13.9924   -0.5188   23.3797 H   0  0  0  0  0  0  0  0  0  0  0  0
   10.5999   -2.0241   21.2296 H   0  0  0  0  0  0  0  0  0  0  0  0
    4.9151    1.7511   16.7471 H   0  0  0  0  0  0  0  0  0  0  0  0
    7.6455   -0.9765   18.1038 H   0  0  0  0  0  0  0  0  0  0  0  0
    7.6916   -0.8974   24.6455 H   0  0  0  0  0  0  0  0  0  0  0  0
    6.8754    0.2287   23.5675 H   0  0  0  0  0  0  0  0  0  0  0  0
    8.8045    1.8492   23.8096 H   0  0  0  0  0  0  0  0  0  0  0  0
    8.1345    1.3967   25.3747 H   0  0  0  0  0  0  0  0  0  0  0  0
  1  2  2  0  0  0  0
  1  3  1  0  0  0  0
  2  4  1  0  0  0  0
  3 10  2  0  0  0  0
  4 11  2  0  0  0  0
  5  6  2  0  0  0  0
  5 14  1  0  0  0  0
  6 15  1  0  0  0  0
  7 12  1  0  0  0  0
  7 15  2  0  0  0  0
  8 10  1  0  0  0  0
  8 21  2  0  0  0  0
  9 13  2  0  0  0  0
  9 21  1  0  0  0  0
 10 11  1  0  0  0  0
 11 13  1  0  0  0  0
 12 14  2  0  0  0  0
 12 20  1  6  0  0  0
 13 22  1  0  0  0  0
 14 25  1  0  0  0  0
 15 27  1  0  0  0  0
 16 20  1  1  0  0  0
 16 22  1  0  0  0  0
 16 23  2  0  0  0  0
 17 22  1  0  0  0  0
 17 24  2  0  0  0  0
 17 26  1  0  0  0  0
 18 19  1  0  0  0  0
 18 20  1  1  0  0  0
 19 25  1  0  0  0  0
 20 26  1  6  0  0  0
  1 28  1  0  0  0  0
  2 29  1  0  0  0  0
  3 30  1  0  0  0  0
  4 31  1  0  0  0  0
  5 32  1  0  0  0  0
  6 33  1  0  0  0  0
  7 34  1  0  0  0  0
  8 35  1  0  0  0  0
  9 36  1  0  0  0  0
 18 37  1  0  0  0  0
 18 38  1  0  0  0  0
 19 39  1  0  0  0  0
 19 40  1  0  0  0  0
M  END
> <scaffold>
chromane-5spiro-isoquinoline

> <compound>
MAT-POS-ec6d90b7-1

> <compound_smiles>
c1ccc2c(c1)cncc2N3C(=O)[C@@]4(CCOc5c4cc(cc5)Cl)OC3=O

> <enantiomer_smiles>
c1ccc2c(c1)cncc2N3C(=O)[C@@]4(CCOc5c4cc(cc5)Cl)OC3=O

> <clash_score>
0

> <docking_score>
3.4028234663852886e+38

> <overlap_score>
1.0

> <MMFF_internal_energy>
73.85590699883562

> <docked_smiles>
c1ccc2c(c1)cncc2N3C(=O)[C@@]4(CCOc5c4cc(cc5)Cl)OC3=O

$$$$
VLA-UNK-cf7facf1-1_1
  -OEChem-01042202303D

 41 45  0     1  0  0  0  0  0999 V2000
    3.3444    2.6278   20.4409 C   0  0  0  0  0  0  0  0  0  0  0  0
    3.8974    1.9290   21.5048 C   0  0  0  0  0  0  0  0  0  0  0  0
    3.7877    2.4205   19.1658 C   0  0  0  0  0  0  0  0  0  0  0  0
    4.8986    1.0232   21.2985 C   0  0  0  0  0  0  0  0  0  0  0  0
   12.0781    0.0316   24.1532 C   0  0  0  0  0  0  0  0  0  0  0  0
   12.9147   -0.6032   23.2559 C   0  0  0  0  0  0  0  0  0  0  0  0
   11.0005   -1.4332   22.0435 C   0  0  0  0  0  0  0  0  0  0  0  0
    5.3288    1.2339   17.6062 C   0  0  0  0  0  0  0  0  0  0  0  0
    6.8449   -0.2893   18.3747 C   0  0  0  0  0  0  0  0  0  0  0  0
    4.8238    1.4906   18.9051 C   0  0  0  0  0  0  0  0  0  0  0  0
    5.3995    0.7732   19.9944 C   0  0  0  0  0  0  0  0  0  0  0  0
   10.1421   -0.7766   22.9242 C   0  0  0  0  0  0  0  0  0  0  0  0
    6.4452   -0.1472   19.6975 C   0  0  0  0  0  0  0  0  0  0  0  0
   10.7056   -0.0626   23.9890 C   0  0  0  0  0  0  0  0  0  0  0  0
   12.3697   -1.3298   22.2224 C   0  0  0  0  0  0  0  0  0  0  0  0
    8.2504    0.0168   21.4265 C   0  0  0  0  0  0  0  0  0  0  0  0
    6.9880   -1.9367   21.3575 C   0  0  0  0  0  0  0  0  0  0  0  0
    7.8737   -0.1194   23.8825 C   0  0  0  0  0  0  0  0  0  0  0  0
    8.6625    1.0133   24.4989 C   0  0  0  0  0  0  0  0  0  0  0  0
    8.6253   -0.7606   22.6923 C   0  0  1  0  0  0  0  0  0  0  0  0
    6.3072    0.3768   17.3417 N   0  0  0  0  0  0  0  0  0  0  0  0
    8.0155   -2.1541   22.4325 N   0  0  0  0  0  0  0  0  0  0  0  0
    7.2305   -0.6898   20.7785 N   0  0  0  0  0  0  0  0  0  0  0  0
    8.7688    1.0710   21.1185 O   0  0  0  0  0  0  0  0  0  0  0  0
    6.1657   -2.7932   21.1190 O   0  0  0  0  0  0  0  0  0  0  0  0
    9.9496    0.5589   24.9527 O   0  0  0  0  0  0  0  0  0  0  0  0
   13.4283   -2.1379   21.1050 Cl  0  0  0  0  0  0  0  0  0  0  0  0
    2.5443    3.3508   20.6368 H   0  0  0  0  0  0  0  0  0  0  0  0
    3.5189    2.1137   22.5166 H   0  0  0  0  0  0  0  0  0  0  0  0
    3.3421    2.9744   18.3363 H   0  0  0  0  0  0  0  0  0  0  0  0
    5.3131    0.4893   22.1569 H   0  0  0  0  0  0  0  0  0  0  0  0
   12.5011    0.5903   24.9831 H   0  0  0  0  0  0  0  0  0  0  0  0
   13.9924   -0.5231   23.3829 H   0  0  0  0  0  0  0  0  0  0  0  0
   10.6032   -2.0171   21.2237 H   0  0  0  0  0  0  0  0  0  0  0  0
    4.9151    1.7511   16.7471 H   0  0  0  0  0  0  0  0  0  0  0  0
    7.6455   -0.9765   18.1038 H   0  0  0  0  0  0  0  0  0  0  0  0
    7.6313   -0.8753   24.6484 H   0  0  0  0  0  0  0  0  0  0  0  0
    6.9130    0.2869   23.5186 H   0  0  0  0  0  0  0  0  0  0  0  0
    8.8471    1.7872   23.7495 H   0  0  0  0  0  0  0  0  0  0  0  0
    8.1385    1.4870   25.3339 H   0  0  0  0  0  0  0  0  0  0  0  0
    8.2306   -2.9427   22.8421 H   0  0  0  0  0  0  0  0  0  0  0  0
  1  2  2  0  0  0  0
  1  3  1  0  0  0  0
  2  4  1  0  0  0  0
  3 10  2  0  0  0  0
  4 11  2  0  0  0  0
  5  6  2  0  0  0  0
  5 14  1  0  0  0  0
  6 15  1  0  0  0  0
  7 12  1  0  0  0  0
  7 15  2  0  0  0  0
  8 10  1  0  0  0  0
  8 21  2  0  0  0  0
  9 13  2  0  0  0  0
  9 21  1  0  0  0  0
 10 11  1  0  0  0  0
 11 13  1  0  0  0  0
 12 14  2  0  0  0  0
 12 20  1  1  0  0  0
 13 23  1  0  0  0  0
 14 26  1  0  0  0  0
 15 27  1  0  0  0  0
 16 20  1  6  0  0  0
 16 23  1  0  0  0  0
 16 24  2  0  0  0  0
 17 22  1  0  0  0  0
 17 23  1  0  0  0  0
 17 25  2  0  0  0  0
 18 19  1  0  0  0  0
 18 20  1  6  0  0  0
 19 26  1  0  0  0  0
 20 22  1  1  0  0  0
  1 28  1  0  0  0  0
  2 29  1  0  0  0  0
  3 30  1  0  0  0  0
  4 31  1  0  0  0  0
  5 32  1  0  0  0  0
  6 33  1  0  0  0  0
  7 34  1  0  0  0  0
  8 35  1  0  0  0  0
  9 36  1  0  0  0  0
 18 37  1  0  0  0  0
 18 38  1  0  0  0  0
 19 39  1  0  0  0  0
 19 40  1  0  0  0  0
 22 41  1  0  0  0  0
M  END
> <scaffold>
chromane-5spiro-isoquinoline

> <compound>
VLA-UNK-cf7facf1-1

> <compound_smiles>
c1ccc2c(c1)cncc2N3C(=O)[C@]4(CCOc5c4cc(cc5)Cl)NC3=O

> <enantiomer_smiles>
c1ccc2c(c1)cncc2N3C(=O)[C@]4(CCOc5c4cc(cc5)Cl)NC3=O

> <clash_score>
0

> <docking_score>
3.4028234663852886e+38

> <overlap_score>
1.0

> <MMFF_internal_energy>
70.15468682002458

> <docked_smiles>
c1ccc2c(c1)cncc2N3C(=O)[C@]4(CCOc5c4cc(cc5)Cl)NC3=O

$$$$
EDJ-MED-f3cfbbb5-1_1
  -OEChem-01042202303D

 47 51  0     1  0  0  0  0  0999 V2000
    3.3444    2.6278   20.4409 C   0  0  0  0  0  0  0  0  0  0  0  0
    3.7877    2.4205   19.1658 C   0  0  0  0  0  0  0  0  0  0  0  0
   12.0781    0.0316   24.1532 C   0  0  0  0  0  0  0  0  0  0  0  0
    3.8974    1.9290   21.5048 C   0  0  0  0  0  0  0  0  0  0  0  0
   12.9147   -0.6032   23.2559 C   0  0  0  0  0  0  0  0  0  0  0  0
   11.0005   -1.4332   22.0435 C   0  0  0  0  0  0  0  0  0  0  0  0
    5.3288    1.2339   17.6062 C   0  0  0  0  0  0  0  0  0  0  0  0
    6.8449   -0.2893   18.3747 C   0  0  0  0  0  0  0  0  0  0  0  0
    4.8238    1.4906   18.9051 C   0  0  0  0  0  0  0  0  0  0  0  0
    5.3995    0.7732   19.9944 C   0  0  0  0  0  0  0  0  0  0  0  0
   10.7056   -0.0626   23.9890 C   0  0  0  0  0  0  0  0  0  0  0  0
   10.1421   -0.7766   22.9242 C   0  0  0  0  0  0  0  0  0  0  0  0
    4.8986    1.0232   21.2985 C   0  0  0  0  0  0  0  0  0  0  0  0
    6.4452   -0.1472   19.6975 C   0  0  0  0  0  0  0  0  0  0  0  0
   12.3697   -1.3298   22.2224 C   0  0  0  0  0  0  0  0  0  0  0  0
    9.9496    0.5589   24.9527 C   0  0  0  0  0  0  0  0  0  0  0  0
    8.0155   -2.1541   22.4325 C   0  0  0  0  0  0  0  0  0  0  0  0
    6.9880   -1.9367   21.3575 C   0  0  0  0  0  0  0  0  0  0  0  0
    8.2504    0.0168   21.4265 C   0  0  0  0  0  0  0  0  0  0  0  0
    7.8737   -0.1194   23.8825 C   0  0  0  0  0  0  0  0  0  0  0  0
    8.6253   -0.7606   22.6923 C   0  0  3  0  0  0  0  0  0  0  0  0
    5.4174    0.3277   22.5244 C   0  0  0  0  0  0  0  0  0  0  0  0
    6.3072    0.3768   17.3417 N   0  0  0  0  0  0  0  0  0  0  0  0
    7.2305   -0.6898   20.7785 N   0  0  3  0  0  0  0  0  0  0  0  0
    8.6625    1.0133   24.4989 O   0  0  0  0  0  0  0  0  0  0  0  0
   13.4292   -2.1412   21.1091 Cl  0  0  0  0  0  0  0  0  0  0  0  0
    2.5428    3.3494   20.6363 H   0  0  0  0  0  0  0  0  0  0  0  0
    3.3416    2.9743   18.3364 H   0  0  0  0  0  0  0  0  0  0  0  0
   12.5039    0.5999   24.9729 H   0  0  0  0  0  0  0  0  0  0  0  0
    3.5095    2.1238   22.5125 H   0  0  0  0  0  0  0  0  0  0  0  0
   13.9928   -0.5156   23.3771 H   0  0  0  0  0  0  0  0  0  0  0  0
   10.6175   -2.0224   21.2253 H   0  0  0  0  0  0  0  0  0  0  0  0
    4.9145    1.7509   16.7471 H   0  0  0  0  0  0  0  0  0  0  0  0
    7.6462   -0.9753   18.1026 H   0  0  0  0  0  0  0  0  0  0  0  0
    9.7195   -0.1012   25.8211 H   0  0  0  0  0  0  0  0  0  0  0  0
   10.4538    1.4548   25.3860 H   0  0  0  0  0  0  0  0  0  0  0  0
    7.5128   -2.5241   23.3395 H   0  0  0  0  0  0  0  0  0  0  0  0
    8.7616   -2.9087   22.1459 H   0  0  0  0  0  0  0  0  0  0  0  0
    7.0423   -2.7509   20.5904 H   0  0  0  0  0  0  0  0  0  0  0  0
    5.9572   -2.0163   21.7913 H   0  0  0  0  0  0  0  0  0  0  0  0
    7.8824    1.0376   21.6899 H   0  0  0  0  0  0  0  0  0  0  0  0
    9.1392    0.1884   20.7702 H   0  0  0  0  0  0  0  0  0  0  0  0
    6.8858    0.2754   23.6062 H   0  0  0  0  0  0  0  0  0  0  0  0
    7.7145   -0.8343   24.6993 H   0  0  0  0  0  0  0  0  0  0  0  0
    4.8458   -0.5878   22.7071 H   0  0  0  0  0  0  0  0  0  0  0  0
    6.4765    0.0680   22.4206 H   0  0  0  0  0  0  0  0  0  0  0  0
    5.3293    0.9798   23.4004 H   0  0  0  0  0  0  0  0  0  0  0  0
  1  2  2  0  0  0  0
  1  4  1  0  0  0  0
  2  9  1  0  0  0  0
  3  5  2  0  0  0  0
  3 11  1  0  0  0  0
  4 13  2  0  0  0  0
  5 15  1  0  0  0  0
  6 12  1  0  0  0  0
  6 15  2  0  0  0  0
  7  9  2  0  0  0  0
  7 23  1  0  0  0  0
  8 14  1  0  0  0  0
  8 23  2  0  0  0  0
  9 10  1  0  0  0  0
 10 13  1  0  0  0  0
 10 14  2  0  0  0  0
 11 12  2  0  0  0  0
 11 16  1  0  0  0  0
 12 21  1  0  0  0  0
 13 22  1  0  0  0  0
 14 24  1  0  0  0  0
 15 26  1  0  0  0  0
 16 25  1  0  0  0  0
 17 18  1  0  0  0  0
 17 21  1  0  0  0  0
 18 24  1  0  0  0  0
 19 21  1  0  0  0  0
 19 24  1  0  0  0  0
 20 21  1  0  0  0  0
 20 25  1  0  0  0  0
  1 27  1  0  0  0  0
  2 28  1  0  0  0  0
  3 29  1  0  0  0  0
  4 30  1  0  0  0  0
  5 31  1  0  0  0  0
  6 32  1  0  0  0  0
  7 33  1  0  0  0  0
  8 34  1  0  0  0  0
 16 35  1  0  0  0  0
 16 36  1  0  0  0  0
 17 37  1  0  0  0  0
 17 38  1  0  0  0  0
 18 39  1  0  0  0  0
 18 40  1  0  0  0  0
 19 41  1  0  0  0  0
 19 42  1  0  0  0  0
 20 43  1  0  0  0  0
 20 44  1  0  0  0  0
 22 45  1  0  0  0  0
 22 46  1  0  0  0  0
 22 47  1  0  0  0  0
M  END
> <scaffold>
tetralinlike-5spiro-isoquinoline

> <compound>
EDJ-MED-f3cfbbb5-1

> <compound_smiles>
Cc1cccc2c1c(cnc2)N3CCC4(C3)COCc5c4cc(cc5)Cl

> <enantiomer_smiles>
Cc1cccc2c1c(cnc2)N3CC[C@@]4(C3)COCc5c4cc(cc5)Cl

> <clash_score>
0

> <docking_score>
3.4028234663852886e+38

> <overlap_score>
0.9570997953414917

> <MMFF_internal_energy>
257.0685443593108

> <docked_smiles>
Cc1cccc2c1c(cnc2)N3CC[C@@]4(C3)COCc5c4cc(cc5)Cl

$$$$
MAT-POS-94643566-1_1
  -OEChem-01042202303D

 42 46  0     1  0  0  0  0  0999 V2000
    3.3444    2.6278   20.4409 C   0  0  0  0  0  0  0  0  0  0  0  0
    3.8974    1.9290   21.5048 C   0  0  0  0  0  0  0  0  0  0  0  0
    3.7877    2.4205   19.1658 C   0  0  0  0  0  0  0  0  0  0  0  0
    4.8986    1.0232   21.2985 C   0  0  0  0  0  0  0  0  0  0  0  0
   12.0781    0.0316   24.1532 C   0  0  0  0  0  0  0  0  0  0  0  0
   12.9147   -0.6032   23.2559 C   0  0  0  0  0  0  0  0  0  0  0  0
   11.0005   -1.4332   22.0435 C   0  0  0  0  0  0  0  0  0  0  0  0
    5.3288    1.2339   17.6062 C   0  0  0  0  0  0  0  0  0  0  0  0
    6.8449   -0.2893   18.3747 C   0  0  0  0  0  0  0  0  0  0  0  0
    4.8238    1.4906   18.9051 C   0  0  0  0  0  0  0  0  0  0  0  0
    5.3995    0.7732   19.9944 C   0  0  0  0  0  0  0  0  0  0  0  0
   10.1421   -0.7766   22.9242 C   0  0  0  0  0  0  0  0  0  0  0  0
    6.4452   -0.1472   19.6975 C   0  0  0  0  0  0  0  0  0  0  0  0
   10.7056   -0.0626   23.9890 C   0  0  0  0  0  0  0  0  0  0  0  0
   12.3697   -1.3298   22.2224 C   0  0  0  0  0  0  0  0  0  0  0  0
    6.9880   -1.9367   21.3575 C   0  0  0  0  0  0  0  0  0  0  0  0
    8.2504    0.0168   21.4265 C   0  0  0  0  0  0  0  0  0  0  0  0
    8.0155   -2.1541   22.4325 C   0  0  0  0  0  0  0  0  0  0  0  0
    7.8737   -0.1194   23.8825 C   0  0  0  0  0  0  0  0  0  0  0  0
    8.6625    1.0133   24.4989 C   0  0  0  0  0  0  0  0  0  0  0  0
    8.6253   -0.7606   22.6923 C   0  0  3  0  0  0  0  0  0  0  0  0
    6.3072    0.3768   17.3417 N   0  0  0  0  0  0  0  0  0  0  0  0
    7.2305   -0.6898   20.7785 N   0  0  0  0  0  0  0  0  0  0  0  0
    6.1228   -2.7617   21.1005 O   0  0  0  0  0  0  0  0  0  0  0  0
    8.7952    1.0566   21.0907 O   0  0  0  0  0  0  0  0  0  0  0  0
    9.9496    0.5589   24.9527 O   0  0  0  0  0  0  0  0  0  0  0  0
   13.4288   -2.1429   21.1092 Cl  0  0  0  0  0  0  0  0  0  0  0  0
    2.5443    3.3508   20.6368 H   0  0  0  0  0  0  0  0  0  0  0  0
    3.5189    2.1137   22.5166 H   0  0  0  0  0  0  0  0  0  0  0  0
    3.3421    2.9744   18.3363 H   0  0  0  0  0  0  0  0  0  0  0  0
    5.3131    0.4893   22.1569 H   0  0  0  0  0  0  0  0  0  0  0  0
   12.5028    0.6090   24.9690 H   0  0  0  0  0  0  0  0  0  0  0  0
   13.9928   -0.5111   23.3739 H   0  0  0  0  0  0  0  0  0  0  0  0
   10.6076   -2.0165   21.2235 H   0  0  0  0  0  0  0  0  0  0  0  0
    4.9151    1.7511   16.7471 H   0  0  0  0  0  0  0  0  0  0  0  0
    7.6455   -0.9765   18.1038 H   0  0  0  0  0  0  0  0  0  0  0  0
    7.5396   -2.5804   23.3251 H   0  0  0  0  0  0  0  0  0  0  0  0
    8.7330   -2.8929   22.0546 H   0  0  0  0  0  0  0  0  0  0  0  0
    7.7092   -0.8827   24.6634 H   0  0  0  0  0  0  0  0  0  0  0  0
    6.8765    0.2420   23.5795 H   0  0  0  0  0  0  0  0  0  0  0  0
    8.7990    1.8573   23.8128 H   0  0  0  0  0  0  0  0  0  0  0  0
    8.1352    1.3967   25.3789 H   0  0  0  0  0  0  0  0  0  0  0  0
  1  2  2  0  0  0  0
  1  3  1  0  0  0  0
  2  4  1  0  0  0  0
  3 10  2  0  0  0  0
  4 11  2  0  0  0  0
  5  6  2  0  0  0  0
  5 14  1  0  0  0  0
  6 15  1  0  0  0  0
  7 12  1  0  0  0  0
  7 15  2  0  0  0  0
  8 10  1  0  0  0  0
  8 22  2  0  0  0  0
  9 13  2  0  0  0  0
  9 22  1  0  0  0  0
 10 11  1  0  0  0  0
 11 13  1  0  0  0  0
 12 14  2  0  0  0  0
 12 21  1  0  0  0  0
 13 23  1  0  0  0  0
 14 26  1  0  0  0  0
 15 27  1  0  0  0  0
 16 18  1  0  0  0  0
 16 23  1  0  0  0  0
 16 24  2  0  0  0  0
 17 21  1  0  0  0  0
 17 23  1  0  0  0  0
 17 25  2  0  0  0  0
 18 21  1  0  0  0  0
 19 20  1  0  0  0  0
 19 21  1  0  0  0  0
 20 26  1  0  0  0  0
  1 28  1  0  0  0  0
  2 29  1  0  0  0  0
  3 30  1  0  0  0  0
  4 31  1  0  0  0  0
  5 32  1  0  0  0  0
  6 33  1  0  0  0  0
  7 34  1  0  0  0  0
  8 35  1  0  0  0  0
  9 36  1  0  0  0  0
 18 37  1  0  0  0  0
 18 38  1  0  0  0  0
 19 39  1  0  0  0  0
 19 40  1  0  0  0  0
 20 41  1  0  0  0  0
 20 42  1  0  0  0  0
M  END
> <scaffold>
chromane-5spiro-isoquinoline

> <compound>
MAT-POS-94643566-1

> <compound_smiles>
c1ccc2c(c1)cncc2N3C(=O)CC4(C3=O)CCOc5c4cc(cc5)Cl

> <enantiomer_smiles>
c1ccc2c(c1)cncc2N3C(=O)C[C@@]4(C3=O)CCOc5c4cc(cc5)Cl

> <clash_score>
0

> <docking_score>
3.4028234663852886e+38

> <overlap_score>
1.0

> <MMFF_internal_energy>
76.27787128279148

> <docked_smiles>
c1ccc2c(c1)cncc2N3C(=O)C[C@@]4(C3=O)CCOc5c4cc(cc5)Cl

$$$$
VLA-UNK-3a43cd95-3_1
  -OEChem-01042202303D

 42 46  0     1  0  0  0  0  0999 V2000
    3.3444    2.6278   20.4409 C   0  0  0  0  0  0  0  0  0  0  0  0
    3.8974    1.9290   21.5048 C   0  0  0  0  0  0  0  0  0  0  0  0
    3.7877    2.4205   19.1658 C   0  0  0  0  0  0  0  0  0  0  0  0
    4.8986    1.0232   21.2985 C   0  0  0  0  0  0  0  0  0  0  0  0
   11.0005   -1.4332   22.0435 C   0  0  0  0  0  0  0  0  0  0  0  0
   12.0781    0.0316   24.1532 C   0  0  0  0  0  0  0  0  0  0  0  0
    5.3288    1.2339   17.6062 C   0  0  0  0  0  0  0  0  0  0  0  0
    6.8449   -0.2893   18.3747 C   0  0  0  0  0  0  0  0  0  0  0  0
    4.8238    1.4906   18.9051 C   0  0  0  0  0  0  0  0  0  0  0  0
    5.3995    0.7732   19.9944 C   0  0  0  0  0  0  0  0  0  0  0  0
   10.1421   -0.7766   22.9242 C   0  0  0  0  0  0  0  0  0  0  0  0
    6.4452   -0.1472   19.6975 C   0  0  0  0  0  0  0  0  0  0  0  0
   10.7056   -0.0626   23.9890 C   0  0  0  0  0  0  0  0  0  0  0  0
   12.9147   -0.6032   23.2559 C   0  0  0  0  0  0  0  0  0  0  0  0
   12.3697   -1.3298   22.2224 C   0  0  0  0  0  0  0  0  0  0  0  0
    6.9880   -1.9367   21.3575 C   0  0  0  0  0  0  0  0  0  0  0  0
    8.2504    0.0168   21.4265 C   0  0  0  0  0  0  0  0  0  0  0  0
    8.0155   -2.1541   22.4325 C   0  0  0  0  0  0  0  0  0  0  0  0
    7.8737   -0.1194   23.8825 C   0  0  0  0  0  0  0  0  0  0  0  0
    8.6625    1.0133   24.4989 C   0  0  0  0  0  0  0  0  0  0  0  0
    8.6253   -0.7606   22.6923 C   0  0  1  0  0  0  0  0  0  0  0  0
    6.3072    0.3768   17.3417 N   0  0  0  0  0  0  0  0  0  0  0  0
    7.2305   -0.6898   20.7785 N   0  0  0  0  0  0  0  0  0  0  0  0
    6.1228   -2.7617   21.1005 O   0  0  0  0  0  0  0  0  0  0  0  0
    8.7952    1.0566   21.0907 O   0  0  0  0  0  0  0  0  0  0  0  0
    9.9496    0.5589   24.9527 O   0  0  0  0  0  0  0  0  0  0  0  0
   14.2446   -0.4915   23.3994 F   0  0  0  0  0  0  0  0  0  0  0  0
   13.4237   -2.1446   21.1048 Cl  0  0  0  0  0  0  0  0  0  0  0  0
    2.5443    3.3508   20.6368 H   0  0  0  0  0  0  0  0  0  0  0  0
    3.5189    2.1137   22.5166 H   0  0  0  0  0  0  0  0  0  0  0  0
    3.3421    2.9744   18.3363 H   0  0  0  0  0  0  0  0  0  0  0  0
    5.3131    0.4893   22.1569 H   0  0  0  0  0  0  0  0  0  0  0  0
   10.6074   -2.0146   21.2222 H   0  0  0  0  0  0  0  0  0  0  0  0
   12.5030    0.6078   24.9696 H   0  0  0  0  0  0  0  0  0  0  0  0
    4.9151    1.7511   16.7471 H   0  0  0  0  0  0  0  0  0  0  0  0
    7.6455   -0.9765   18.1038 H   0  0  0  0  0  0  0  0  0  0  0  0
    7.5406   -2.5809   23.3253 H   0  0  0  0  0  0  0  0  0  0  0  0
    8.7330   -2.8929   22.0543 H   0  0  0  0  0  0  0  0  0  0  0  0
    7.7086   -0.8827   24.6634 H   0  0  0  0  0  0  0  0  0  0  0  0
    6.8763    0.2420   23.5800 H   0  0  0  0  0  0  0  0  0  0  0  0
    8.7996    1.8574   23.8131 H   0  0  0  0  0  0  0  0  0  0  0  0
    8.1355    1.3972   25.3786 H   0  0  0  0  0  0  0  0  0  0  0  0
  1  2  2  0  0  0  0
  1  3  1  0  0  0  0
  2  4  1  0  0  0  0
  3  9  2  0  0  0  0
  4 10  2  0  0  0  0
  5 11  2  0  0  0  0
  5 15  1  0  0  0  0
  6 13  2  0  0  0  0
  6 14  1  0  0  0  0
  7  9  1  0  0  0  0
  7 22  2  0  0  0  0
  8 12  2  0  0  0  0
  8 22  1  0  0  0  0
  9 10  1  0  0  0  0
 10 12  1  0  0  0  0
 11 13  1  0  0  0  0
 11 21  1  6  0  0  0
 12 23  1  0  0  0  0
 13 26  1  0  0  0  0
 14 15  2  0  0  0  0
 14 27  1  0  0  0  0
 15 28  1  0  0  0  0
 16 18  1  0  0  0  0
 16 23  1  0  0  0  0
 16 24  2  0  0  0  0
 17 21  1  1  0  0  0
 17 23  1  0  0  0  0
 17 25  2  0  0  0  0
 18 21  1  1  0  0  0
 19 20  1  0  0  0  0
 19 21  1  6  0  0  0
 20 26  1  0  0  0  0
  1 29  1  0  0  0  0
  2 30  1  0  0  0  0
  3 31  1  0  0  0  0
  4 32  1  0  0  0  0
  5 33  1  0  0  0  0
  6 34  1  0  0  0  0
  7 35  1  0  0  0  0
  8 36  1  0  0  0  0
 18 37  1  0  0  0  0
 18 38  1  0  0  0  0
 19 39  1  0  0  0  0
 19 40  1  0  0  0  0
 20 41  1  0  0  0  0
 20 42  1  0  0  0  0
M  END
> <scaffold>
chromane-5spiro-isoquinoline

> <compound>
VLA-UNK-3a43cd95-3

> <compound_smiles>
c1ccc2c(c1)cncc2N3C(=O)C[C@@]4(C3=O)CCOc5c4cc(c(c5)F)Cl

> <enantiomer_smiles>
c1ccc2c(c1)cncc2N3C(=O)C[C@@]4(C3=O)CCOc5c4cc(c(c5)F)Cl

> <clash_score>
0

> <docking_score>
3.4028234663852886e+38

> <overlap_score>
1.009084939956665

> <MMFF_internal_energy>
80.94731624035168

> <docked_smiles>
c1ccc2c(c1)cncc2N3C(=O)C[C@@]4(C3=O)CCOc5c4cc(c(c5)F)Cl

$$$$
VLA-UCB-05e51b3f-5_1
  -OEChem-01042202303D

 42 46  0     1  0  0  0  0  0999 V2000
    3.3444    2.6278   20.4409 C   0  0  0  0  0  0  0  0  0  0  0  0
    3.8974    1.9290   21.5048 C   0  0  0  0  0  0  0  0  0  0  0  0
    3.7877    2.4205   19.1658 C   0  0  0  0  0  0  0  0  0  0  0  0
    4.8986    1.0232   21.2985 C   0  0  0  0  0  0  0  0  0  0  0  0
   12.0781    0.0316   24.1532 C   0  0  0  0  0  0  0  0  0  0  0  0
   12.9147   -0.6032   23.2559 C   0  0  0  0  0  0  0  0  0  0  0  0
   11.0005   -1.4332   22.0435 C   0  0  0  0  0  0  0  0  0  0  0  0
    5.3288    1.2339   17.6062 C   0  0  0  0  0  0  0  0  0  0  0  0
    6.8449   -0.2893   18.3747 C   0  0  0  0  0  0  0  0  0  0  0  0
    4.8238    1.4906   18.9051 C   0  0  0  0  0  0  0  0  0  0  0  0
    5.3995    0.7732   19.9944 C   0  0  0  0  0  0  0  0  0  0  0  0
   10.1421   -0.7766   22.9242 C   0  0  0  0  0  0  0  0  0  0  0  0
    6.4452   -0.1472   19.6975 C   0  0  0  0  0  0  0  0  0  0  0  0
   10.7056   -0.0626   23.9890 C   0  0  0  0  0  0  0  0  0  0  0  0
   12.3697   -1.3298   22.2224 C   0  0  0  0  0  0  0  0  0  0  0  0
    6.9880   -1.9367   21.3575 C   0  0  0  0  0  0  0  0  0  0  0  0
    8.2504    0.0168   21.4265 C   0  0  0  0  0  0  0  0  0  0  0  0
    8.0155   -2.1541   22.4325 C   0  0  0  0  0  0  0  0  0  0  0  0
    7.8737   -0.1194   23.8825 C   0  0  0  0  0  0  0  0  0  0  0  0
    8.6625    1.0133   24.4989 C   0  0  0  0  0  0  0  0  0  0  0  0
    8.6253   -0.7606   22.6923 C   0  0  2  0  0  0  0  0  0  0  0  0
    6.3072    0.3768   17.3417 N   0  0  0  0  0  0  0  0  0  0  0  0
    7.2305   -0.6898   20.7785 N   0  0  0  0  0  0  0  0  0  0  0  0
    6.1237   -2.7624   21.0998 O   0  0  0  0  0  0  0  0  0  0  0  0
    8.7765    1.0704   21.1045 O   0  0  0  0  0  0  0  0  0  0  0  0
    9.9496    0.5589   24.9527 O   0  0  0  0  0  0  0  0  0  0  0  0
   13.4288   -2.1401   21.1071 Cl  0  0  0  0  0  0  0  0  0  0  0  0
    2.5443    3.3508   20.6368 H   0  0  0  0  0  0  0  0  0  0  0  0
    3.5189    2.1137   22.5166 H   0  0  0  0  0  0  0  0  0  0  0  0
    3.3421    2.9744   18.3363 H   0  0  0  0  0  0  0  0  0  0  0  0
    5.3131    0.4893   22.1569 H   0  0  0  0  0  0  0  0  0  0  0  0
   12.5018    0.5858   24.9855 H   0  0  0  0  0  0  0  0  0  0  0  0
   13.9928   -0.5277   23.3856 H   0  0  0  0  0  0  0  0  0  0  0  0
   10.6075   -2.0243   21.2292 H   0  0  0  0  0  0  0  0  0  0  0  0
    4.9151    1.7511   16.7471 H   0  0  0  0  0  0  0  0  0  0  0  0
    7.6455   -0.9765   18.1038 H   0  0  0  0  0  0  0  0  0  0  0  0
    7.4970   -2.5837   23.2984 H   0  0  0  0  0  0  0  0  0  0  0  0
    8.7608   -2.8862   22.0961 H   0  0  0  0  0  0  0  0  0  0  0  0
    7.6312   -0.8689   24.6549 H   0  0  0  0  0  0  0  0  0  0  0  0
    6.9114    0.2904   23.5279 H   0  0  0  0  0  0  0  0  0  0  0  0
    8.8480    1.7877   23.7471 H   0  0  0  0  0  0  0  0  0  0  0  0
    8.1364    1.4934   25.3323 H   0  0  0  0  0  0  0  0  0  0  0  0
  1  2  2  0  0  0  0
  1  3  1  0  0  0  0
  2  4  1  0  0  0  0
  3 10  2  0  0  0  0
  4 11  2  0  0  0  0
  5  6  2  0  0  0  0
  5 14  1  0  0  0  0
  6 15  1  0  0  0  0
  7 12  1  0  0  0  0
  7 15  2  0  0  0  0
  8 10  1  0  0  0  0
  8 22  2  0  0  0  0
  9 13  2  0  0  0  0
  9 22  1  0  0  0  0
 10 11  1  0  0  0  0
 11 13  1  0  0  0  0
 12 14  2  0  0  0  0
 12 21  1  1  0  0  0
 13 23  1  0  0  0  0
 14 26  1  0  0  0  0
 15 27  1  0  0  0  0
 16 18  1  0  0  0  0
 16 23  1  0  0  0  0
 16 24  2  0  0  0  0
 17 21  1  6  0  0  0
 17 23  1  0  0  0  0
 17 25  2  0  0  0  0
 18 21  1  6  0  0  0
 19 20  1  0  0  0  0
 19 21  1  1  0  0  0
 20 26  1  0  0  0  0
  1 28  1  0  0  0  0
  2 29  1  0  0  0  0
  3 30  1  0  0  0  0
  4 31  1  0  0  0  0
  5 32  1  0  0  0  0
  6 33  1  0  0  0  0
  7 34  1  0  0  0  0
  8 35  1  0  0  0  0
  9 36  1  0  0  0  0
 18 37  1  0  0  0  0
 18 38  1  0  0  0  0
 19 39  1  0  0  0  0
 19 40  1  0  0  0  0
 20 41  1  0  0  0  0
 20 42  1  0  0  0  0
M  END
> <scaffold>
chromane-5spiro-isoquinoline

> <compound>
VLA-UCB-05e51b3f-5

> <compound_smiles>
c1ccc2c(c1)cncc2N3C(=O)C[C@]4(C3=O)CCOc5c4cc(cc5)Cl

> <enantiomer_smiles>
c1ccc2c(c1)cncc2N3C(=O)C[C@]4(C3=O)CCOc5c4cc(cc5)Cl

> <clash_score>
0

> <docking_score>
3.4028234663852886e+38

> <overlap_score>
1.0

> <MMFF_internal_energy>
77.28813970729733

> <docked_smiles>
c1ccc2c(c1)cncc2N3C(=O)C[C@]4(C3=O)CCOc5c4cc(cc5)Cl

$$$$
VLA-UNK-56836b69-3_1
  -OEChem-01042202303D

 44 48  0     1  0  0  0  0  0999 V2000
    3.3444    2.6278   20.4409 C   0  0  0  0  0  0  0  0  0  0  0  0
    3.8974    1.9290   21.5048 C   0  0  0  0  0  0  0  0  0  0  0  0
    3.7877    2.4205   19.1658 C   0  0  0  0  0  0  0  0  0  0  0  0
    4.8986    1.0232   21.2985 C   0  0  0  0  0  0  0  0  0  0  0  0
   11.0005   -1.4332   22.0435 C   0  0  0  0  0  0  0  0  0  0  0  0
   12.0781    0.0316   24.1532 C   0  0  0  0  0  0  0  0  0  0  0  0
    5.3288    1.2339   17.6062 C   0  0  0  0  0  0  0  0  0  0  0  0
    6.8449   -0.2893   18.3747 C   0  0  0  0  0  0  0  0  0  0  0  0
    4.8238    1.4906   18.9051 C   0  0  0  0  0  0  0  0  0  0  0  0
    5.3995    0.7732   19.9944 C   0  0  0  0  0  0  0  0  0  0  0  0
   10.1421   -0.7766   22.9242 C   0  0  0  0  0  0  0  0  0  0  0  0
    6.4452   -0.1472   19.6975 C   0  0  0  0  0  0  0  0  0  0  0  0
   10.7056   -0.0626   23.9890 C   0  0  0  0  0  0  0  0  0  0  0  0
   12.3697   -1.3298   22.2224 C   0  0  0  0  0  0  0  0  0  0  0  0
   12.9147   -0.6032   23.2559 C   0  0  0  0  0  0  0  0  0  0  0  0
    8.2504    0.0168   21.4265 C   0  0  0  0  0  0  0  0  0  0  0  0
    6.9880   -1.9367   21.3575 C   0  0  0  0  0  0  0  0  0  0  0  0
    7.8737   -0.1194   23.8825 C   0  0  0  0  0  0  0  0  0  0  0  0
    8.6625    1.0133   24.4989 C   0  0  0  0  0  0  0  0  0  0  0  0
    8.6253   -0.7606   22.6923 C   0  0  1  0  0  0  0  0  0  0  0  0
    8.2670   -3.3056   23.1149 C   0  0  0  0  0  0  0  0  0  0  0  0
    6.3072    0.3768   17.3417 N   0  0  0  0  0  0  0  0  0  0  0  0
    7.2305   -0.6898   20.7785 N   0  0  0  0  0  0  0  0  0  0  0  0
    8.0155   -2.1541   22.4325 N   0  0  0  0  0  0  0  0  0  0  0  0
    8.8030    1.0413   21.0842 O   0  0  0  0  0  0  0  0  0  0  0  0
    6.1158   -2.7517   21.1386 O   0  0  0  0  0  0  0  0  0  0  0  0
    9.9496    0.5589   24.9527 O   0  0  0  0  0  0  0  0  0  0  0  0
   13.3796   -2.1727   21.0739 Cl  0  0  0  0  0  0  0  0  0  0  0  0
   14.6219   -0.4420   23.4818 Cl  0  0  0  0  0  0  0  0  0  0  0  0
    2.5443    3.3508   20.6368 H   0  0  0  0  0  0  0  0  0  0  0  0
    3.5189    2.1137   22.5166 H   0  0  0  0  0  0  0  0  0  0  0  0
    3.3421    2.9744   18.3363 H   0  0  0  0  0  0  0  0  0  0  0  0
    5.3131    0.4893   22.1569 H   0  0  0  0  0  0  0  0  0  0  0  0
   10.5999   -2.0242   21.2303 H   0  0  0  0  0  0  0  0  0  0  0  0
   12.4849    0.6112   24.9782 H   0  0  0  0  0  0  0  0  0  0  0  0
    4.9151    1.7511   16.7471 H   0  0  0  0  0  0  0  0  0  0  0  0
    7.6455   -0.9765   18.1038 H   0  0  0  0  0  0  0  0  0  0  0  0
    7.7143   -0.8754   24.6692 H   0  0  0  0  0  0  0  0  0  0  0  0
    6.8761    0.2356   23.5741 H   0  0  0  0  0  0  0  0  0  0  0  0
    8.8025    1.8560   23.8153 H   0  0  0  0  0  0  0  0  0  0  0  0
    8.1356    1.3957   25.3777 H   0  0  0  0  0  0  0  0  0  0  0  0
    9.0390   -3.8808   22.5828 H   0  0  0  0  0  0  0  0  0  0  0  0
    8.6244   -3.0603   24.1259 H   0  0  0  0  0  0  0  0  0  0  0  0
    7.3474   -3.9049   23.1864 H   0  0  0  0  0  0  0  0  0  0  0  0
  1  2  2  0  0  0  0
  1  3  1  0  0  0  0
  2  4  1  0  0  0  0
  3  9  2  0  0  0  0
  4 10  2  0  0  0  0
  5 11  2  0  0  0  0
  5 14  1  0  0  0  0
  6 13  2  0  0  0  0
  6 15  1  0  0  0  0
  7  9  1  0  0  0  0
  7 22  2  0  0  0  0
  8 12  2  0  0  0  0
  8 22  1  0  0  0  0
  9 10  1  0  0  0  0
 10 12  1  0  0  0  0
 11 13  1  0  0  0  0
 11 20  1  1  0  0  0
 12 23  1  0  0  0  0
 13 27  1  0  0  0  0
 14 15  2  0  0  0  0
 14 28  1  0  0  0  0
 15 29  1  0  0  0  0
 16 20  1  1  0  0  0
 16 23  1  0  0  0  0
 16 25  2  0  0  0  0
 17 23  1  0  0  0  0
 17 24  1  0  0  0  0
 17 26  2  0  0  0  0
 18 19  1  0  0  0  0
 18 20  1  6  0  0  0
 19 27  1  0  0  0  0
 20 24  1  6  0  0  0
 21 24  1  0  0  0  0
  1 30  1  0  0  0  0
  2 31  1  0  0  0  0
  3 32  1  0  0  0  0
  4 33  1  0  0  0  0
  5 34  1  0  0  0  0
  6 35  1  0  0  0  0
  7 36  1  0  0  0  0
  8 37  1  0  0  0  0
 18 38  1  0  0  0  0
 18 39  1  0  0  0  0
 19 40  1  0  0  0  0
 19 41  1  0  0  0  0
 21 42  1  0  0  0  0
 21 43  1  0  0  0  0
 21 44  1  0  0  0  0
M  END
> <scaffold>
chromane-5spiro-isoquinoline

> <compound>
VLA-UNK-56836b69-3

> <compound_smiles>
CN1C(=O)N(C(=O)[C@@]12CCOc3c2cc(c(c3)Cl)Cl)c4cncc5c4cccc5

> <enantiomer_smiles>
CN1C(=O)N(C(=O)[C@@]12CCOc3c2cc(c(c3)Cl)Cl)c4cncc5c4cccc5

> <clash_score>
0

> <docking_score>
3.4028234663852886e+38

> <overlap_score>
1.0134263038635254

> <MMFF_internal_energy>
79.62465257837334

> <docked_smiles>
CN1C(=O)N(C(=O)[C@@]12CCOc3c2cc(c(c3)Cl)Cl)c4cncc5c4cccc5

$$$$
ALP-POS-41e2080f-1_1
  -OEChem-01042202303D

 45 49  0     1  0  0  0  0  0999 V2000
    3.3444    2.6278   20.4409 C   0  0  0  0  0  0  0  0  0  0  0  0
    3.8974    1.9290   21.5048 C   0  0  0  0  0  0  0  0  0  0  0  0
    3.7877    2.4205   19.1658 C   0  0  0  0  0  0  0  0  0  0  0  0
    4.8986    1.0232   21.2985 C   0  0  0  0  0  0  0  0  0  0  0  0
   12.0781    0.0316   24.1532 C   0  0  0  0  0  0  0  0  0  0  0  0
   12.9147   -0.6032   23.2559 C   0  0  0  0  0  0  0  0  0  0  0  0
   11.0005   -1.4332   22.0435 C   0  0  0  0  0  0  0  0  0  0  0  0
    5.3288    1.2339   17.6062 C   0  0  0  0  0  0  0  0  0  0  0  0
    6.8449   -0.2893   18.3747 C   0  0  0  0  0  0  0  0  0  0  0  0
    4.8238    1.4906   18.9051 C   0  0  0  0  0  0  0  0  0  0  0  0
    5.3995    0.7732   19.9944 C   0  0  0  0  0  0  0  0  0  0  0  0
   10.1421   -0.7766   22.9242 C   0  0  0  0  0  0  0  0  0  0  0  0
    6.4452   -0.1472   19.6975 C   0  0  0  0  0  0  0  0  0  0  0  0
   10.7056   -0.0626   23.9890 C   0  0  0  0  0  0  0  0  0  0  0  0
   12.3697   -1.3298   22.2224 C   0  0  0  0  0  0  0  0  0  0  0  0
    8.2504    0.0168   21.4265 C   0  0  0  0  0  0  0  0  0  0  0  0
    8.0155   -2.1541   22.4325 C   0  0  0  0  0  0  0  0  0  0  0  0
    7.8737   -0.1194   23.8825 C   0  0  0  0  0  0  0  0  0  0  0  0
    6.9880   -1.9367   21.3575 C   0  0  0  0  0  0  0  0  0  0  0  0
    8.6625    1.0133   24.4989 C   0  0  0  0  0  0  0  0  0  0  0  0
    8.6253   -0.7606   22.6923 C   0  0  3  0  0  0  0  0  0  0  0  0
    6.3072    0.3768   17.3417 N   0  0  0  0  0  0  0  0  0  0  0  0
    7.2305   -0.6898   20.7785 N   0  0  0  0  0  0  0  0  0  0  0  0
    8.7566    1.0941   21.1311 O   0  0  0  0  0  0  0  0  0  0  0  0
    9.7120   -0.4300   26.1378 O   0  0  0  0  0  0  0  0  0  0  0  0
   10.7467    1.7884   25.4917 O   0  0  0  0  0  0  0  0  0  0  0  0
    9.9496    0.5589   24.9527 S   0  0  0  0  0  0  0  0  0  0  0  0
   13.4302   -2.1437   21.1108 Cl  0  0  0  0  0  0  0  0  0  0  0  0
    2.5443    3.3508   20.6368 H   0  0  0  0  0  0  0  0  0  0  0  0
    3.5189    2.1137   22.5166 H   0  0  0  0  0  0  0  0  0  0  0  0
    3.3421    2.9744   18.3363 H   0  0  0  0  0  0  0  0  0  0  0  0
    5.3131    0.4893   22.1569 H   0  0  0  0  0  0  0  0  0  0  0  0
   12.5141    0.5961   24.9741 H   0  0  0  0  0  0  0  0  0  0  0  0
   13.9930   -0.5214   23.3817 H   0  0  0  0  0  0  0  0  0  0  0  0
   10.6120   -2.0228   21.2300 H   0  0  0  0  0  0  0  0  0  0  0  0
    4.9151    1.7511   16.7471 H   0  0  0  0  0  0  0  0  0  0  0  0
    7.6455   -0.9765   18.1038 H   0  0  0  0  0  0  0  0  0  0  0  0
    7.5792   -2.6139   23.3283 H   0  0  0  0  0  0  0  0  0  0  0  0
    8.7727   -2.8629   22.0635 H   0  0  0  0  0  0  0  0  0  0  0  0
    7.6629   -0.8655   24.6523 H   0  0  0  0  0  0  0  0  0  0  0  0
    6.9026    0.2573   23.5461 H   0  0  0  0  0  0  0  0  0  0  0  0
    7.0247   -2.7501   20.5941 H   0  0  0  0  0  0  0  0  0  0  0  0
    5.9565   -1.9488   21.7820 H   0  0  0  0  0  0  0  0  0  0  0  0
    8.7048    1.8247   23.7053 H   0  0  0  0  0  0  0  0  0  0  0  0
    8.0006    1.4860   25.2925 H   0  0  0  0  0  0  0  0  0  0  0  0
  1  2  2  0  0  0  0
  1  3  1  0  0  0  0
  2  4  1  0  0  0  0
  3 10  2  0  0  0  0
  4 11  2  0  0  0  0
  5  6  2  0  0  0  0
  5 14  1  0  0  0  0
  6 15  1  0  0  0  0
  7 12  1  0  0  0  0
  7 15  2  0  0  0  0
  8 10  1  0  0  0  0
  8 22  2  0  0  0  0
  9 13  2  0  0  0  0
  9 22  1  0  0  0  0
 10 11  1  0  0  0  0
 11 13  1  0  0  0  0
 12 14  2  0  0  0  0
 12 21  1  0  0  0  0
 13 23  1  0  0  0  0
 14 27  1  0  0  0  0
 15 28  1  0  0  0  0
 16 21  1  0  0  0  0
 16 23  1  0  0  0  0
 16 24  2  0  0  0  0
 17 19  1  0  0  0  0
 17 21  1  0  0  0  0
 18 20  1  0  0  0  0
 18 21  1  0  0  0  0
 19 23  1  0  0  0  0
 20 27  1  0  0  0  0
 25 27  2  0  0  0  0
 26 27  2  0  0  0  0
  1 29  1  0  0  0  0
  2 30  1  0  0  0  0
  3 31  1  0  0  0  0
  4 32  1  0  0  0  0
  5 33  1  0  0  0  0
  6 34  1  0  0  0  0
  7 35  1  0  0  0  0
  8 36  1  0  0  0  0
  9 37  1  0  0  0  0
 17 38  1  0  0  0  0
 17 39  1  0  0  0  0
 18 40  1  0  0  0  0
 18 41  1  0  0  0  0
 19 42  1  0  0  0  0
 19 43  1  0  0  0  0
 20 44  1  0  0  0  0
 20 45  1  0  0  0  0
M  END
> <scaffold>
tetralinlike-5spiro-isoquinoline

> <compound>
ALP-POS-41e2080f-1

> <compound_smiles>
c1ccc2c(c1)cncc2N3CCC4(C3=O)CCS(=O)(=O)c5c4cc(cc5)Cl

> <enantiomer_smiles>
c1ccc2c(c1)cncc2N3CC[C@@]4(C3=O)CCS(=O)(=O)c5c4cc(cc5)Cl

> <clash_score>
0.7168183810318016

> <docking_score>
3.4028234663852886e+38

> <overlap_score>
0.9900269508361816

> <MMFF_internal_energy>
296.52317145667587

> <docked_smiles>
c1ccc2c(c1)cncc2N3CC[C@@]4(C3=O)CCS(=O)(=O)c5c4cc(cc5)Cl

$$$$
VLA-UNK-3a43cd95-1_1
  -OEChem-01042202303D

 41 45  0     1  0  0  0  0  0999 V2000
    3.3444    2.6278   20.4409 C   0  0  0  0  0  0  0  0  0  0  0  0
    3.8974    1.9290   21.5048 C   0  0  0  0  0  0  0  0  0  0  0  0
    3.7877    2.4205   19.1658 C   0  0  0  0  0  0  0  0  0  0  0  0
    4.8986    1.0232   21.2985 C   0  0  0  0  0  0  0  0  0  0  0  0
   11.0005   -1.4332   22.0435 C   0  0  0  0  0  0  0  0  0  0  0  0
   12.0781    0.0316   24.1532 C   0  0  0  0  0  0  0  0  0  0  0  0
    5.3288    1.2339   17.6062 C   0  0  0  0  0  0  0  0  0  0  0  0
    6.8449   -0.2893   18.3747 C   0  0  0  0  0  0  0  0  0  0  0  0
    4.8238    1.4906   18.9051 C   0  0  0  0  0  0  0  0  0  0  0  0
    5.3995    0.7732   19.9944 C   0  0  0  0  0  0  0  0  0  0  0  0
   10.1421   -0.7766   22.9242 C   0  0  0  0  0  0  0  0  0  0  0  0
    6.4452   -0.1472   19.6975 C   0  0  0  0  0  0  0  0  0  0  0  0
   10.7056   -0.0626   23.9890 C   0  0  0  0  0  0  0  0  0  0  0  0
   12.9147   -0.6032   23.2559 C   0  0  0  0  0  0  0  0  0  0  0  0
   12.3697   -1.3298   22.2224 C   0  0  0  0  0  0  0  0  0  0  0  0
    8.2504    0.0168   21.4265 C   0  0  0  0  0  0  0  0  0  0  0  0
    6.9880   -1.9367   21.3575 C   0  0  0  0  0  0  0  0  0  0  0  0
    7.8737   -0.1194   23.8825 C   0  0  0  0  0  0  0  0  0  0  0  0
    8.6625    1.0133   24.4989 C   0  0  0  0  0  0  0  0  0  0  0  0
    8.6253   -0.7606   22.6923 C   0  0  2  0  0  0  0  0  0  0  0  0
    6.3072    0.3768   17.3417 N   0  0  0  0  0  0  0  0  0  0  0  0
    8.0155   -2.1541   22.4325 N   0  0  0  0  0  0  0  0  0  0  0  0
    7.2305   -0.6898   20.7785 N   0  0  0  0  0  0  0  0  0  0  0  0
    8.8050    1.0440   21.0913 O   0  0  0  0  0  0  0  0  0  0  0  0
    6.1341   -2.7710   21.1540 O   0  0  0  0  0  0  0  0  0  0  0  0
    9.9496    0.5589   24.9527 O   0  0  0  0  0  0  0  0  0  0  0  0
   14.2442   -0.4976   23.4035 F   0  0  0  0  0  0  0  0  0  0  0  0
   13.4229   -2.1486   21.1070 Cl  0  0  0  0  0  0  0  0  0  0  0  0
    2.5443    3.3508   20.6368 H   0  0  0  0  0  0  0  0  0  0  0  0
    3.5189    2.1137   22.5166 H   0  0  0  0  0  0  0  0  0  0  0  0
    3.3421    2.9744   18.3363 H   0  0  0  0  0  0  0  0  0  0  0  0
    5.3131    0.4893   22.1569 H   0  0  0  0  0  0  0  0  0  0  0  0
   10.6029   -2.0223   21.2275 H   0  0  0  0  0  0  0  0  0  0  0  0
   12.5016    0.6044   24.9730 H   0  0  0  0  0  0  0  0  0  0  0  0
    4.9151    1.7511   16.7471 H   0  0  0  0  0  0  0  0  0  0  0  0
    7.6455   -0.9765   18.1038 H   0  0  0  0  0  0  0  0  0  0  0  0
    7.7124   -0.8890   24.6586 H   0  0  0  0  0  0  0  0  0  0  0  0
    6.8763    0.2367   23.5734 H   0  0  0  0  0  0  0  0  0  0  0  0
    8.8034    1.8522   23.8118 H   0  0  0  0  0  0  0  0  0  0  0  0
    8.1359    1.3966   25.3765 H   0  0  0  0  0  0  0  0  0  0  0  0
    8.2138   -2.9422   22.8515 H   0  0  0  0  0  0  0  0  0  0  0  0
  1  2  2  0  0  0  0
  1  3  1  0  0  0  0
  2  4  1  0  0  0  0
  3  9  2  0  0  0  0
  4 10  2  0  0  0  0
  5 11  2  0  0  0  0
  5 15  1  0  0  0  0
  6 13  2  0  0  0  0
  6 14  1  0  0  0  0
  7  9  1  0  0  0  0
  7 21  2  0  0  0  0
  8 12  2  0  0  0  0
  8 21  1  0  0  0  0
  9 10  1  0  0  0  0
 10 12  1  0  0  0  0
 11 13  1  0  0  0  0
 11 20  1  6  0  0  0
 12 23  1  0  0  0  0
 13 26  1  0  0  0  0
 14 15  2  0  0  0  0
 14 27  1  0  0  0  0
 15 28  1  0  0  0  0
 16 20  1  1  0  0  0
 16 23  1  0  0  0  0
 16 24  2  0  0  0  0
 17 22  1  0  0  0  0
 17 23  1  0  0  0  0
 17 25  2  0  0  0  0
 18 19  1  0  0  0  0
 18 20  1  1  0  0  0
 19 26  1  0  0  0  0
 20 22  1  6  0  0  0
  1 29  1  0  0  0  0
  2 30  1  0  0  0  0
  3 31  1  0  0  0  0
  4 32  1  0  0  0  0
  5 33  1  0  0  0  0
  6 34  1  0  0  0  0
  7 35  1  0  0  0  0
  8 36  1  0  0  0  0
 18 37  1  0  0  0  0
 18 38  1  0  0  0  0
 19 39  1  0  0  0  0
 19 40  1  0  0  0  0
 22 41  1  0  0  0  0
M  END
> <scaffold>
chromane-5spiro-isoquinoline

> <compound>
VLA-UNK-3a43cd95-1

> <compound_smiles>
c1ccc2c(c1)cncc2N3C(=O)[C@@]4(CCOc5c4cc(c(c5)F)Cl)NC3=O

> <enantiomer_smiles>
c1ccc2c(c1)cncc2N3C(=O)[C@@]4(CCOc5c4cc(c(c5)F)Cl)NC3=O

> <clash_score>
0

> <docking_score>
3.4028234663852886e+38

> <overlap_score>
1.0092310905456543

> <MMFF_internal_energy>
74.68732856291699

> <docked_smiles>
c1ccc2c(c1)cncc2N3C(=O)[C@@]4(CCOc5c4cc(c(c5)F)Cl)NC3=O

$$$$
DAR-DIA-0f7b7cd9-9_1
  -OEChem-01042202303D

 42 46  0     1  0  0  0  0  0999 V2000
    3.3444    2.6278   20.4409 C   0  0  0  0  0  0  0  0  0  0  0  0
    3.8974    1.9290   21.5048 C   0  0  0  0  0  0  0  0  0  0  0  0
    3.7877    2.4205   19.1658 C   0  0  0  0  0  0  0  0  0  0  0  0
    4.8986    1.0232   21.2985 C   0  0  0  0  0  0  0  0  0  0  0  0
   12.0781    0.0316   24.1532 C   0  0  0  0  0  0  0  0  0  0  0  0
   12.9147   -0.6032   23.2559 C   0  0  0  0  0  0  0  0  0  0  0  0
   11.0005   -1.4332   22.0435 C   0  0  0  0  0  0  0  0  0  0  0  0
    5.3288    1.2339   17.6062 C   0  0  0  0  0  0  0  0  0  0  0  0
    6.8449   -0.2893   18.3747 C   0  0  0  0  0  0  0  0  0  0  0  0
    4.8238    1.4906   18.9051 C   0  0  0  0  0  0  0  0  0  0  0  0
    5.3995    0.7732   19.9944 C   0  0  0  0  0  0  0  0  0  0  0  0
   10.1421   -0.7766   22.9242 C   0  0  0  0  0  0  0  0  0  0  0  0
    6.4452   -0.1472   19.6975 C   0  0  0  0  0  0  0  0  0  0  0  0
   10.7056   -0.0626   23.9890 C   0  0  0  0  0  0  0  0  0  0  0  0
   12.3697   -1.3298   22.2224 C   0  0  0  0  0  0  0  0  0  0  0  0
    8.0155   -2.1541   22.4325 C   0  0  0  0  0  0  0  0  0  0  0  0
    8.2504    0.0168   21.4265 C   0  0  0  0  0  0  0  0  0  0  0  0
    6.9880   -1.9367   21.3575 C   0  0  0  0  0  0  0  0  0  0  0  0
    7.8737   -0.1194   23.8825 C   0  0  0  0  0  0  0  0  0  0  0  0
    8.6625    1.0133   24.4989 C   0  0  0  0  0  0  0  0  0  0  0  0
    8.6253   -0.7606   22.6923 C   0  0  3  0  0  0  0  0  0  0  0  0
    6.3072    0.3768   17.3417 N   0  0  0  0  0  0  0  0  0  0  0  0
    7.2305   -0.6898   20.7785 N   0  0  0  0  0  0  0  0  0  0  0  0
    8.2940   -3.1658   22.9521 O   0  0  0  0  0  0  0  0  0  0  0  0
    8.8014    1.0679   21.1170 O   0  0  0  0  0  0  0  0  0  0  0  0
    9.9496    0.5589   24.9527 O   0  0  0  0  0  0  0  0  0  0  0  0
   13.4281   -2.1471   21.1116 Cl  0  0  0  0  0  0  0  0  0  0  0  0
    2.5443    3.3508   20.6368 H   0  0  0  0  0  0  0  0  0  0  0  0
    3.5189    2.1137   22.5166 H   0  0  0  0  0  0  0  0  0  0  0  0
    3.3421    2.9744   18.3363 H   0  0  0  0  0  0  0  0  0  0  0  0
    5.3131    0.4893   22.1569 H   0  0  0  0  0  0  0  0  0  0  0  0
   12.5015    0.6060   24.9720 H   0  0  0  0  0  0  0  0  0  0  0  0
   13.9925   -0.5166   23.3779 H   0  0  0  0  0  0  0  0  0  0  0  0
   10.6026   -2.0241   21.2289 H   0  0  0  0  0  0  0  0  0  0  0  0
    4.9151    1.7511   16.7471 H   0  0  0  0  0  0  0  0  0  0  0  0
    7.6455   -0.9765   18.1038 H   0  0  0  0  0  0  0  0  0  0  0  0
    7.0707   -2.7501   20.5921 H   0  0  0  0  0  0  0  0  0  0  0  0
    5.9639   -1.9708   21.8103 H   0  0  0  0  0  0  0  0  0  0  0  0
    7.6981   -0.8836   24.6593 H   0  0  0  0  0  0  0  0  0  0  0  0
    6.8775    0.2360   23.5713 H   0  0  0  0  0  0  0  0  0  0  0  0
    8.8026    1.8526   23.8116 H   0  0  0  0  0  0  0  0  0  0  0  0
    8.1352    1.3981   25.3757 H   0  0  0  0  0  0  0  0  0  0  0  0
  1  2  2  0  0  0  0
  1  3  1  0  0  0  0
  2  4  1  0  0  0  0
  3 10  2  0  0  0  0
  4 11  2  0  0  0  0
  5  6  2  0  0  0  0
  5 14  1  0  0  0  0
  6 15  1  0  0  0  0
  7 12  1  0  0  0  0
  7 15  2  0  0  0  0
  8 10  1  0  0  0  0
  8 22  2  0  0  0  0
  9 13  2  0  0  0  0
  9 22  1  0  0  0  0
 10 11  1  0  0  0  0
 11 13  1  0  0  0  0
 12 14  2  0  0  0  0
 12 21  1  0  0  0  0
 13 23  1  0  0  0  0
 14 26  1  0  0  0  0
 15 27  1  0  0  0  0
 16 18  1  0  0  0  0
 16 21  1  0  0  0  0
 16 24  2  0  0  0  0
 17 21  1  0  0  0  0
 17 23  1  0  0  0  0
 17 25  2  0  0  0  0
 18 23  1  0  0  0  0
 19 20  1  0  0  0  0
 19 21  1  0  0  0  0
 20 26  1  0  0  0  0
  1 28  1  0  0  0  0
  2 29  1  0  0  0  0
  3 30  1  0  0  0  0
  4 31  1  0  0  0  0
  5 32  1  0  0  0  0
  6 33  1  0  0  0  0
  7 34  1  0  0  0  0
  8 35  1  0  0  0  0
  9 36  1  0  0  0  0
 18 37  1  0  0  0  0
 18 38  1  0  0  0  0
 19 39  1  0  0  0  0
 19 40  1  0  0  0  0
 20 41  1  0  0  0  0
 20 42  1  0  0  0  0
M  END
> <scaffold>
chromane-5spiro-isoquinoline

> <compound>
DAR-DIA-0f7b7cd9-9

> <compound_smiles>
c1ccc2c(c1)cncc2N3CC(=O)C4(C3=O)CCOc5c4cc(cc5)Cl

> <enantiomer_smiles>
c1ccc2c(c1)cncc2N3CC(=O)[C@]4(C3=O)CCOc5c4cc(cc5)Cl

> <clash_score>
0

> <docking_score>
3.4028234663852886e+38

> <overlap_score>
0.9851563572883606

> <MMFF_internal_energy>
112.34299033652036

> <docked_smiles>
c1ccc2c(c1)cncc2N3CC(=O)[C@]4(C3=O)CCOc5c4cc(cc5)Cl

$$$$
VLA-UNK-56836b69-2_1
  -OEChem-01042202303D

 41 45  0     1  0  0  0  0  0999 V2000
    3.3444    2.6278   20.4409 C   0  0  0  0  0  0  0  0  0  0  0  0
    3.8974    1.9290   21.5048 C   0  0  0  0  0  0  0  0  0  0  0  0
    3.7877    2.4205   19.1658 C   0  0  0  0  0  0  0  0  0  0  0  0
    4.8986    1.0232   21.2985 C   0  0  0  0  0  0  0  0  0  0  0  0
   11.0005   -1.4332   22.0435 C   0  0  0  0  0  0  0  0  0  0  0  0
   12.0781    0.0316   24.1532 C   0  0  0  0  0  0  0  0  0  0  0  0
    5.3288    1.2339   17.6062 C   0  0  0  0  0  0  0  0  0  0  0  0
    6.8449   -0.2893   18.3747 C   0  0  0  0  0  0  0  0  0  0  0  0
    4.8238    1.4906   18.9051 C   0  0  0  0  0  0  0  0  0  0  0  0
    5.3995    0.7732   19.9944 C   0  0  0  0  0  0  0  0  0  0  0  0
   10.1421   -0.7766   22.9242 C   0  0  0  0  0  0  0  0  0  0  0  0
    6.4452   -0.1472   19.6975 C   0  0  0  0  0  0  0  0  0  0  0  0
   10.7056   -0.0626   23.9890 C   0  0  0  0  0  0  0  0  0  0  0  0
   12.3697   -1.3298   22.2224 C   0  0  0  0  0  0  0  0  0  0  0  0
   12.9147   -0.6032   23.2559 C   0  0  0  0  0  0  0  0  0  0  0  0
    8.2504    0.0168   21.4265 C   0  0  0  0  0  0  0  0  0  0  0  0
    6.9880   -1.9367   21.3575 C   0  0  0  0  0  0  0  0  0  0  0  0
    7.8737   -0.1194   23.8825 C   0  0  0  0  0  0  0  0  0  0  0  0
    8.6625    1.0133   24.4989 C   0  0  0  0  0  0  0  0  0  0  0  0
    8.6253   -0.7606   22.6923 C   0  0  2  0  0  0  0  0  0  0  0  0
    6.3072    0.3768   17.3417 N   0  0  0  0  0  0  0  0  0  0  0  0
    8.0155   -2.1541   22.4325 N   0  0  0  0  0  0  0  0  0  0  0  0
    7.2305   -0.6898   20.7785 N   0  0  0  0  0  0  0  0  0  0  0  0
    8.8050    1.0440   21.0913 O   0  0  0  0  0  0  0  0  0  0  0  0
    6.1341   -2.7710   21.1540 O   0  0  0  0  0  0  0  0  0  0  0  0
    9.9496    0.5589   24.9527 O   0  0  0  0  0  0  0  0  0  0  0  0
   13.3799   -2.1717   21.0732 Cl  0  0  0  0  0  0  0  0  0  0  0  0
   14.6220   -0.4424   23.4821 Cl  0  0  0  0  0  0  0  0  0  0  0  0
    2.5443    3.3508   20.6368 H   0  0  0  0  0  0  0  0  0  0  0  0
    3.5189    2.1137   22.5166 H   0  0  0  0  0  0  0  0  0  0  0  0
    3.3421    2.9744   18.3363 H   0  0  0  0  0  0  0  0  0  0  0  0
    5.3131    0.4893   22.1569 H   0  0  0  0  0  0  0  0  0  0  0  0
   10.6004   -2.0232   21.2291 H   0  0  0  0  0  0  0  0  0  0  0  0
   12.4849    0.6087   24.9799 H   0  0  0  0  0  0  0  0  0  0  0  0
    4.9151    1.7511   16.7471 H   0  0  0  0  0  0  0  0  0  0  0  0
    7.6455   -0.9765   18.1038 H   0  0  0  0  0  0  0  0  0  0  0  0
    7.7120   -0.8891   24.6583 H   0  0  0  0  0  0  0  0  0  0  0  0
    6.8763    0.2364   23.5731 H   0  0  0  0  0  0  0  0  0  0  0  0
    8.8034    1.8521   23.8113 H   0  0  0  0  0  0  0  0  0  0  0  0
    8.1361    1.3969   25.3767 H   0  0  0  0  0  0  0  0  0  0  0  0
    8.2125   -2.9428   22.8510 H   0  0  0  0  0  0  0  0  0  0  0  0
  1  2  2  0  0  0  0
  1  3  1  0  0  0  0
  2  4  1  0  0  0  0
  3  9  2  0  0  0  0
  4 10  2  0  0  0  0
  5 11  2  0  0  0  0
  5 14  1  0  0  0  0
  6 13  2  0  0  0  0
  6 15  1  0  0  0  0
  7  9  1  0  0  0  0
  7 21  2  0  0  0  0
  8 12  2  0  0  0  0
  8 21  1  0  0  0  0
  9 10  1  0  0  0  0
 10 12  1  0  0  0  0
 11 13  1  0  0  0  0
 11 20  1  6  0  0  0
 12 23  1  0  0  0  0
 13 26  1  0  0  0  0
 14 15  2  0  0  0  0
 14 27  1  0  0  0  0
 15 28  1  0  0  0  0
 16 20  1  1  0  0  0
 16 23  1  0  0  0  0
 16 24  2  0  0  0  0
 17 22  1  0  0  0  0
 17 23  1  0  0  0  0
 17 25  2  0  0  0  0
 18 19  1  0  0  0  0
 18 20  1  1  0  0  0
 19 26  1  0  0  0  0
 20 22  1  6  0  0  0
  1 29  1  0  0  0  0
  2 30  1  0  0  0  0
  3 31  1  0  0  0  0
  4 32  1  0  0  0  0
  5 33  1  0  0  0  0
  6 34  1  0  0  0  0
  7 35  1  0  0  0  0
  8 36  1  0  0  0  0
 18 37  1  0  0  0  0
 18 38  1  0  0  0  0
 19 39  1  0  0  0  0
 19 40  1  0  0  0  0
 22 41  1  0  0  0  0
M  END
> <scaffold>
chromane-5spiro-isoquinoline

> <compound>
VLA-UNK-56836b69-2

> <compound_smiles>
c1ccc2c(c1)cncc2N3C(=O)[C@@]4(CCOc5c4cc(c(c5)Cl)Cl)NC3=O

> <enantiomer_smiles>
c1ccc2c(c1)cncc2N3C(=O)[C@@]4(CCOc5c4cc(c(c5)Cl)Cl)NC3=O

> <clash_score>
0

> <docking_score>
3.4028234663852886e+38

> <overlap_score>
1.0

> <MMFF_internal_energy>
76.77767955486563

> <docked_smiles>
c1ccc2c(c1)cncc2N3C(=O)[C@@]4(CCOc5c4cc(c(c5)Cl)Cl)NC3=O

$$$$
BEN-BAS-c2bc0d80-7_1
  -OEChem-01042202303D

 44 48  0     1  0  0  0  0  0999 V2000
    3.3444    2.6278   20.4409 C   0  0  0  0  0  0  0  0  0  0  0  0
    3.8974    1.9290   21.5048 C   0  0  0  0  0  0  0  0  0  0  0  0
    3.7877    2.4205   19.1658 C   0  0  0  0  0  0  0  0  0  0  0  0
    4.8986    1.0232   21.2985 C   0  0  0  0  0  0  0  0  0  0  0  0
   12.0781    0.0316   24.1532 C   0  0  0  0  0  0  0  0  0  0  0  0
   12.9147   -0.6032   23.2559 C   0  0  0  0  0  0  0  0  0  0  0  0
   11.0005   -1.4332   22.0435 C   0  0  0  0  0  0  0  0  0  0  0  0
    5.3288    1.2339   17.6062 C   0  0  0  0  0  0  0  0  0  0  0  0
    6.8449   -0.2893   18.3747 C   0  0  0  0  0  0  0  0  0  0  0  0
    4.8238    1.4906   18.9051 C   0  0  0  0  0  0  0  0  0  0  0  0
    5.3995    0.7732   19.9944 C   0  0  0  0  0  0  0  0  0  0  0  0
   10.1421   -0.7766   22.9242 C   0  0  0  0  0  0  0  0  0  0  0  0
    6.4452   -0.1472   19.6975 C   0  0  0  0  0  0  0  0  0  0  0  0
   10.7056   -0.0626   23.9890 C   0  0  0  0  0  0  0  0  0  0  0  0
   12.3697   -1.3298   22.2224 C   0  0  0  0  0  0  0  0  0  0  0  0
    8.2504    0.0168   21.4265 C   0  0  0  0  0  0  0  0  0  0  0  0
    6.9880   -1.9367   21.3575 C   0  0  0  0  0  0  0  0  0  0  0  0
    7.8737   -0.1194   23.8825 C   0  0  0  0  0  0  0  0  0  0  0  0
    8.6625    1.0133   24.4989 C   0  0  0  0  0  0  0  0  0  0  0  0
    8.6253   -0.7606   22.6923 C   0  0  3  0  0  0  0  0  0  0  0  0
    8.2670   -3.3056   23.1149 C   0  0  0  0  0  0  0  0  0  0  0  0
    6.3072    0.3768   17.3417 N   0  0  0  0  0  0  0  0  0  0  0  0
    7.2305   -0.6898   20.7785 N   0  0  0  0  0  0  0  0  0  0  0  0
    8.0155   -2.1541   22.4325 N   0  0  0  0  0  0  0  0  0  0  0  0
    8.8030    1.0413   21.0842 O   0  0  0  0  0  0  0  0  0  0  0  0
    6.1158   -2.7517   21.1386 O   0  0  0  0  0  0  0  0  0  0  0  0
    9.9496    0.5589   24.9527 O   0  0  0  0  0  0  0  0  0  0  0  0
   13.4278   -2.1472   21.1115 Cl  0  0  0  0  0  0  0  0  0  0  0  0
    2.5443    3.3508   20.6368 H   0  0  0  0  0  0  0  0  0  0  0  0
    3.5189    2.1137   22.5166 H   0  0  0  0  0  0  0  0  0  0  0  0
    3.3421    2.9744   18.3363 H   0  0  0  0  0  0  0  0  0  0  0  0
    5.3131    0.4893   22.1569 H   0  0  0  0  0  0  0  0  0  0  0  0
   12.5017    0.6065   24.9715 H   0  0  0  0  0  0  0  0  0  0  0  0
   13.9924   -0.5157   23.3773 H   0  0  0  0  0  0  0  0  0  0  0  0
   10.6031   -2.0252   21.2295 H   0  0  0  0  0  0  0  0  0  0  0  0
    4.9151    1.7511   16.7471 H   0  0  0  0  0  0  0  0  0  0  0  0
    7.6455   -0.9765   18.1038 H   0  0  0  0  0  0  0  0  0  0  0  0
    7.7144   -0.8754   24.6692 H   0  0  0  0  0  0  0  0  0  0  0  0
    6.8760    0.2356   23.5741 H   0  0  0  0  0  0  0  0  0  0  0  0
    8.8025    1.8559   23.8153 H   0  0  0  0  0  0  0  0  0  0  0  0
    8.1356    1.3957   25.3777 H   0  0  0  0  0  0  0  0  0  0  0  0
    9.0390   -3.8808   22.5828 H   0  0  0  0  0  0  0  0  0  0  0  0
    8.6244   -3.0603   24.1259 H   0  0  0  0  0  0  0  0  0  0  0  0
    7.3474   -3.9049   23.1864 H   0  0  0  0  0  0  0  0  0  0  0  0
  1  2  2  0  0  0  0
  1  3  1  0  0  0  0
  2  4  1  0  0  0  0
  3 10  2  0  0  0  0
  4 11  2  0  0  0  0
  5  6  2  0  0  0  0
  5 14  1  0  0  0  0
  6 15  1  0  0  0  0
  7 12  1  0  0  0  0
  7 15  2  0  0  0  0
  8 10  1  0  0  0  0
  8 22  2  0  0  0  0
  9 13  2  0  0  0  0
  9 22  1  0  0  0  0
 10 11  1  0  0  0  0
 11 13  1  0  0  0  0
 12 14  2  0  0  0  0
 12 20  1  0  0  0  0
 13 23  1  0  0  0  0
 14 27  1  0  0  0  0
 15 28  1  0  0  0  0
 16 20  1  0  0  0  0
 16 23  1  0  0  0  0
 16 25  2  0  0  0  0
 17 23  1  0  0  0  0
 17 24  1  0  0  0  0
 17 26  2  0  0  0  0
 18 19  1  0  0  0  0
 18 20  1  0  0  0  0
 19 27  1  0  0  0  0
 20 24  1  0  0  0  0
 21 24  1  0  0  0  0
  1 29  1  0  0  0  0
  2 30  1  0  0  0  0
  3 31  1  0  0  0  0
  4 32  1  0  0  0  0
  5 33  1  0  0  0  0
  6 34  1  0  0  0  0
  7 35  1  0  0  0  0
  8 36  1  0  0  0  0
  9 37  1  0  0  0  0
 18 38  1  0  0  0  0
 18 39  1  0  0  0  0
 19 40  1  0  0  0  0
 19 41  1  0  0  0  0
 21 42  1  0  0  0  0
 21 43  1  0  0  0  0
 21 44  1  0  0  0  0
M  END
> <scaffold>
chromane-5spiro-isoquinoline

> <compound>
BEN-BAS-c2bc0d80-7

> <compound_smiles>
CN1C(=O)N(C(=O)C12CCOc3c2cc(cc3)Cl)c4cncc5c4cccc5

> <enantiomer_smiles>
CN1C(=O)N(C(=O)[C@@]12CCOc3c2cc(cc3)Cl)c4cncc5c4cccc5

> <clash_score>
0

> <docking_score>
3.4028234663852886e+38

> <overlap_score>
1.0

> <MMFF_internal_energy>
72.6597257931913

> <docked_smiles>
CN1C(=O)N(C(=O)[C@@]12CCOc3c2cc(cc3)Cl)c4cncc5c4cccc5

$$$$
MAT-POS-ec6d90b7-2_1
  -OEChem-01042202303D

 40 44  0     1  0  0  0  0  0999 V2000
    3.3444    2.6278   20.4409 C   0  0  0  0  0  0  0  0  0  0  0  0
    3.8974    1.9290   21.5048 C   0  0  0  0  0  0  0  0  0  0  0  0
    3.7877    2.4205   19.1658 C   0  0  0  0  0  0  0  0  0  0  0  0
    4.8986    1.0232   21.2985 C   0  0  0  0  0  0  0  0  0  0  0  0
   12.0781    0.0316   24.1532 C   0  0  0  0  0  0  0  0  0  0  0  0
   12.9147   -0.6032   23.2559 C   0  0  0  0  0  0  0  0  0  0  0  0
   11.0005   -1.4332   22.0435 C   0  0  0  0  0  0  0  0  0  0  0  0
    5.3288    1.2339   17.6062 C   0  0  0  0  0  0  0  0  0  0  0  0
    6.8449   -0.2893   18.3747 C   0  0  0  0  0  0  0  0  0  0  0  0
    4.8238    1.4906   18.9051 C   0  0  0  0  0  0  0  0  0  0  0  0
    5.3995    0.7732   19.9944 C   0  0  0  0  0  0  0  0  0  0  0  0
   10.1421   -0.7766   22.9242 C   0  0  0  0  0  0  0  0  0  0  0  0
    6.4452   -0.1472   19.6975 C   0  0  0  0  0  0  0  0  0  0  0  0
   10.7056   -0.0626   23.9890 C   0  0  0  0  0  0  0  0  0  0  0  0
   12.3697   -1.3298   22.2224 C   0  0  0  0  0  0  0  0  0  0  0  0
    8.2504    0.0168   21.4265 C   0  0  0  0  0  0  0  0  0  0  0  0
    6.9880   -1.9367   21.3575 C   0  0  0  0  0  0  0  0  0  0  0  0
    7.8737   -0.1194   23.8825 C   0  0  0  0  0  0  0  0  0  0  0  0
    8.6625    1.0133   24.4989 C   0  0  0  0  0  0  0  0  0  0  0  0
    8.6253   -0.7606   22.6923 C   0  0  1  0  0  0  0  0  0  0  0  0
    6.3072    0.3768   17.3417 N   0  0  0  0  0  0  0  0  0  0  0  0
    7.2305   -0.6898   20.7785 N   0  0  0  0  0  0  0  0  0  0  0  0
    8.7641    1.0821   21.1259 O   0  0  0  0  0  0  0  0  0  0  0  0
    6.1896   -2.7899   21.1489 O   0  0  0  0  0  0  0  0  0  0  0  0
    9.9496    0.5589   24.9527 O   0  0  0  0  0  0  0  0  0  0  0  0
    8.0155   -2.1541   22.4325 O   0  0  0  0  0  0  0  0  0  0  0  0
   13.4279   -2.1382   21.1048 Cl  0  0  0  0  0  0  0  0  0  0  0  0
    2.5443    3.3508   20.6368 H   0  0  0  0  0  0  0  0  0  0  0  0
    3.5189    2.1137   22.5166 H   0  0  0  0  0  0  0  0  0  0  0  0
    3.3421    2.9744   18.3363 H   0  0  0  0  0  0  0  0  0  0  0  0
    5.3131    0.4893   22.1569 H   0  0  0  0  0  0  0  0  0  0  0  0
   12.5013    0.5926   24.9814 H   0  0  0  0  0  0  0  0  0  0  0  0
   13.9924   -0.5198   23.3801 H   0  0  0  0  0  0  0  0  0  0  0  0
   10.5999   -2.0166   21.2241 H   0  0  0  0  0  0  0  0  0  0  0  0
    4.9151    1.7511   16.7471 H   0  0  0  0  0  0  0  0  0  0  0  0
    7.6455   -0.9765   18.1038 H   0  0  0  0  0  0  0  0  0  0  0  0
    7.6295   -0.8811   24.6423 H   0  0  0  0  0  0  0  0  0  0  0  0
    6.9027    0.2645   23.5217 H   0  0  0  0  0  0  0  0  0  0  0  0
    8.8461    1.7868   23.7502 H   0  0  0  0  0  0  0  0  0  0  0  0
    8.1379    1.4835   25.3343 H   0  0  0  0  0  0  0  0  0  0  0  0
  1  2  2  0  0  0  0
  1  3  1  0  0  0  0
  2  4  1  0  0  0  0
  3 10  2  0  0  0  0
  4 11  2  0  0  0  0
  5  6  2  0  0  0  0
  5 14  1  0  0  0  0
  6 15  1  0  0  0  0
  7 12  1  0  0  0  0
  7 15  2  0  0  0  0
  8 10  1  0  0  0  0
  8 21  2  0  0  0  0
  9 13  2  0  0  0  0
  9 21  1  0  0  0  0
 10 11  1  0  0  0  0
 11 13  1  0  0  0  0
 12 14  2  0  0  0  0
 12 20  1  1  0  0  0
 13 22  1  0  0  0  0
 14 25  1  0  0  0  0
 15 27  1  0  0  0  0
 16 20  1  6  0  0  0
 16 22  1  0  0  0  0
 16 23  2  0  0  0  0
 17 22  1  0  0  0  0
 17 24  2  0  0  0  0
 17 26  1  0  0  0  0
 18 19  1  0  0  0  0
 18 20  1  6  0  0  0
 19 25  1  0  0  0  0
 20 26  1  1  0  0  0
  1 28  1  0  0  0  0
  2 29  1  0  0  0  0
  3 30  1  0  0  0  0
  4 31  1  0  0  0  0
  5 32  1  0  0  0  0
  6 33  1  0  0  0  0
  7 34  1  0  0  0  0
  8 35  1  0  0  0  0
  9 36  1  0  0  0  0
 18 37  1  0  0  0  0
 18 38  1  0  0  0  0
 19 39  1  0  0  0  0
 19 40  1  0  0  0  0
M  END
> <scaffold>
chromane-5spiro-isoquinoline

> <compound>
MAT-POS-ec6d90b7-2

> <compound_smiles>
c1ccc2c(c1)cncc2N3C(=O)[C@]4(CCOc5c4cc(cc5)Cl)OC3=O

> <enantiomer_smiles>
c1ccc2c(c1)cncc2N3C(=O)[C@]4(CCOc5c4cc(cc5)Cl)OC3=O

> <clash_score>
0

> <docking_score>
3.4028234663852886e+38

> <overlap_score>
1.0

> <MMFF_internal_energy>
74.17972293973827

> <docked_smiles>
c1ccc2c(c1)cncc2N3C(=O)[C@]4(CCOc5c4cc(cc5)Cl)OC3=O

$$$$
EDJ-MED-d4864bdc-3_1
  -OEChem-01042202303D

 45 49  0     1  0  0  0  0  0999 V2000
    3.3444    2.6278   20.4409 C   0  0  0  0  0  0  0  0  0  0  0  0
    3.8974    1.9290   21.5048 C   0  0  0  0  0  0  0  0  0  0  0  0
    3.7877    2.4205   19.1658 C   0  0  0  0  0  0  0  0  0  0  0  0
    4.8986    1.0232   21.2985 C   0  0  0  0  0  0  0  0  0  0  0  0
   12.0781    0.0316   24.1532 C   0  0  0  0  0  0  0  0  0  0  0  0
   12.9147   -0.6032   23.2559 C   0  0  0  0  0  0  0  0  0  0  0  0
   11.0005   -1.4332   22.0435 C   0  0  0  0  0  0  0  0  0  0  0  0
    5.3288    1.2339   17.6062 C   0  0  0  0  0  0  0  0  0  0  0  0
    6.8449   -0.2893   18.3747 C   0  0  0  0  0  0  0  0  0  0  0  0
    4.8238    1.4906   18.9051 C   0  0  0  0  0  0  0  0  0  0  0  0
    5.3995    0.7732   19.9944 C   0  0  0  0  0  0  0  0  0  0  0  0
   10.1421   -0.7766   22.9242 C   0  0  0  0  0  0  0  0  0  0  0  0
    6.4452   -0.1472   19.6975 C   0  0  0  0  0  0  0  0  0  0  0  0
   10.7056   -0.0626   23.9890 C   0  0  0  0  0  0  0  0  0  0  0  0
   12.3697   -1.3298   22.2224 C   0  0  0  0  0  0  0  0  0  0  0  0
    8.2504    0.0168   21.4265 C   0  0  0  0  0  0  0  0  0  0  0  0
    8.0155   -2.1541   22.4325 C   0  0  0  0  0  0  0  0  0  0  0  0
    7.8737   -0.1194   23.8825 C   0  0  0  0  0  0  0  0  0  0  0  0
    6.9880   -1.9367   21.3575 C   0  0  0  0  0  0  0  0  0  0  0  0
    8.6625    1.0133   24.4989 C   0  0  0  0  0  0  0  0  0  0  0  0
    8.6253   -0.7606   22.6923 C   0  0  3  0  0  0  0  0  0  0  0  0
    6.3072    0.3768   17.3417 N   0  0  0  0  0  0  0  0  0  0  0  0
    7.2305   -0.6898   20.7785 N   0  0  0  0  0  0  0  0  0  0  0  0
    8.7566    1.0941   21.1311 O   0  0  0  0  0  0  0  0  0  0  0  0
    9.7120   -0.4300   26.1378 O   0  0  0  0  0  0  0  0  0  0  0  0
   10.7467    1.7884   25.4917 O   0  0  0  0  0  0  0  0  0  0  0  0
    9.9496    0.5589   24.9527 S   0  0  0  0  0  0  0  0  0  0  0  0
   13.4302   -2.1437   21.1108 Cl  0  0  0  0  0  0  0  0  0  0  0  0
    2.5443    3.3508   20.6368 H   0  0  0  0  0  0  0  0  0  0  0  0
    3.5189    2.1137   22.5166 H   0  0  0  0  0  0  0  0  0  0  0  0
    3.3421    2.9744   18.3363 H   0  0  0  0  0  0  0  0  0  0  0  0
    5.3131    0.4893   22.1569 H   0  0  0  0  0  0  0  0  0  0  0  0
   12.5141    0.5961   24.9741 H   0  0  0  0  0  0  0  0  0  0  0  0
   13.9930   -0.5214   23.3817 H   0  0  0  0  0  0  0  0  0  0  0  0
   10.6120   -2.0228   21.2300 H   0  0  0  0  0  0  0  0  0  0  0  0
    4.9151    1.7511   16.7471 H   0  0  0  0  0  0  0  0  0  0  0  0
    7.6455   -0.9765   18.1038 H   0  0  0  0  0  0  0  0  0  0  0  0
    7.5792   -2.6139   23.3283 H   0  0  0  0  0  0  0  0  0  0  0  0
    8.7727   -2.8629   22.0635 H   0  0  0  0  0  0  0  0  0  0  0  0
    7.6629   -0.8655   24.6523 H   0  0  0  0  0  0  0  0  0  0  0  0
    6.9026    0.2573   23.5461 H   0  0  0  0  0  0  0  0  0  0  0  0
    7.0247   -2.7501   20.5941 H   0  0  0  0  0  0  0  0  0  0  0  0
    5.9565   -1.9488   21.7820 H   0  0  0  0  0  0  0  0  0  0  0  0
    8.7048    1.8247   23.7053 H   0  0  0  0  0  0  0  0  0  0  0  0
    8.0006    1.4860   25.2925 H   0  0  0  0  0  0  0  0  0  0  0  0
  1  2  2  0  0  0  0
  1  3  1  0  0  0  0
  2  4  1  0  0  0  0
  3 10  2  0  0  0  0
  4 11  2  0  0  0  0
  5  6  2  0  0  0  0
  5 14  1  0  0  0  0
  6 15  1  0  0  0  0
  7 12  1  0  0  0  0
  7 15  2  0  0  0  0
  8 10  1  0  0  0  0
  8 22  2  0  0  0  0
  9 13  2  0  0  0  0
  9 22  1  0  0  0  0
 10 11  1  0  0  0  0
 11 13  1  0  0  0  0
 12 14  2  0  0  0  0
 12 21  1  0  0  0  0
 13 23  1  0  0  0  0
 14 27  1  0  0  0  0
 15 28  1  0  0  0  0
 16 21  1  0  0  0  0
 16 23  1  0  0  0  0
 16 24  2  0  0  0  0
 17 19  1  0  0  0  0
 17 21  1  0  0  0  0
 18 20  1  0  0  0  0
 18 21  1  0  0  0  0
 19 23  1  0  0  0  0
 20 27  1  0  0  0  0
 25 27  2  0  0  0  0
 26 27  2  0  0  0  0
  1 29  1  0  0  0  0
  2 30  1  0  0  0  0
  3 31  1  0  0  0  0
  4 32  1  0  0  0  0
  5 33  1  0  0  0  0
  6 34  1  0  0  0  0
  7 35  1  0  0  0  0
  8 36  1  0  0  0  0
  9 37  1  0  0  0  0
 17 38  1  0  0  0  0
 17 39  1  0  0  0  0
 18 40  1  0  0  0  0
 18 41  1  0  0  0  0
 19 42  1  0  0  0  0
 19 43  1  0  0  0  0
 20 44  1  0  0  0  0
 20 45  1  0  0  0  0
M  END
> <scaffold>
tetralinlike-5spiro-isoquinoline

> <compound>
EDJ-MED-d4864bdc-3

> <compound_smiles>
c1ccc2c(c1)cncc2N3CCC4(C3=O)CCS(=O)(=O)c5c4cc(cc5)Cl

> <enantiomer_smiles>
c1ccc2c(c1)cncc2N3CC[C@@]4(C3=O)CCS(=O)(=O)c5c4cc(cc5)Cl

> <clash_score>
0.7168183810318016

> <docking_score>
3.4028234663852886e+38

> <overlap_score>
0.9900269508361816

> <MMFF_internal_energy>
296.52317145667587

> <docked_smiles>
c1ccc2c(c1)cncc2N3CC[C@@]4(C3=O)CCS(=O)(=O)c5c4cc(cc5)Cl

$$$$
PET-UNK-aa57768f-9_1
  -OEChem-01042202303D

 48 52  0     1  0  0  0  0  0999 V2000
    6.0701    2.7211   25.8759 C   0  0  0  0  0  0  0  0  0  0  0  0
    7.0525    2.5349   25.2114 C   0  0  0  0  0  0  0  0  0  0  0  0
    3.3444    2.6278   20.4409 C   0  0  0  0  0  0  0  0  0  0  0  0
    3.8974    1.9290   21.5048 C   0  0  0  0  0  0  0  0  0  0  0  0
    3.7877    2.4205   19.1658 C   0  0  0  0  0  0  0  0  0  0  0  0
    4.8986    1.0232   21.2985 C   0  0  0  0  0  0  0  0  0  0  0  0
   12.0781    0.0316   24.1532 C   0  0  0  0  0  0  0  0  0  0  0  0
   12.9147   -0.6032   23.2559 C   0  0  0  0  0  0  0  0  0  0  0  0
   11.0005   -1.4332   22.0435 C   0  0  0  0  0  0  0  0  0  0  0  0
    5.3288    1.2339   17.6062 C   0  0  0  0  0  0  0  0  0  0  0  0
    6.8449   -0.2893   18.3747 C   0  0  0  0  0  0  0  0  0  0  0  0
    4.8238    1.4906   18.9051 C   0  0  0  0  0  0  0  0  0  0  0  0
    5.3995    0.7732   19.9944 C   0  0  0  0  0  0  0  0  0  0  0  0
   10.7056   -0.0626   23.9890 C   0  0  0  0  0  0  0  0  0  0  0  0
   10.1421   -0.7766   22.9242 C   0  0  0  0  0  0  0  0  0  0  0  0
    6.4452   -0.1472   19.6975 C   0  0  0  0  0  0  0  0  0  0  0  0
   12.3697   -1.3298   22.2224 C   0  0  0  0  0  0  0  0  0  0  0  0
    9.9496    0.5589   24.9527 C   0  0  0  0  0  0  0  0  0  0  0  0
    8.2504    0.0168   21.4265 C   0  0  0  0  0  0  0  0  0  0  0  0
    8.0155   -2.1541   22.4325 C   0  0  0  0  0  0  0  0  0  0  0  0
    6.9880   -1.9367   21.3575 C   0  0  0  0  0  0  0  0  0  0  0  0
    7.8737   -0.1194   23.8825 C   0  0  0  0  0  0  0  0  0  0  0  0
    8.6253   -0.7606   22.6923 C   0  0  3  0  0  0  0  0  0  0  0  0
    8.2515    2.3131   24.3993 C   0  0  0  0  0  0  0  0  0  0  0  0
    6.3072    0.3768   17.3417 N   0  0  0  0  0  0  0  0  0  0  0  0
    7.2305   -0.6898   20.7785 N   0  0  0  0  0  0  0  0  0  0  0  0
    8.6625    1.0133   24.4989 N   0  0  0  0  0  0  0  0  0  0  0  0
   10.3195    0.7180   26.1132 O   0  0  0  0  0  0  0  0  0  0  0  0
    8.8318    1.0393   21.0797 O   0  0  0  0  0  0  0  0  0  0  0  0
   13.4288   -2.1465   21.1124 Cl  0  0  0  0  0  0  0  0  0  0  0  0
    5.1989    2.8860   26.4658 H   0  0  0  0  0  0  0  0  0  0  0  0
    2.5443    3.3508   20.6368 H   0  0  0  0  0  0  0  0  0  0  0  0
    3.5189    2.1137   22.5166 H   0  0  0  0  0  0  0  0  0  0  0  0
    3.3421    2.9744   18.3363 H   0  0  0  0  0  0  0  0  0  0  0  0
    5.3131    0.4893   22.1569 H   0  0  0  0  0  0  0  0  0  0  0  0
   12.5188    0.5961   24.9710 H   0  0  0  0  0  0  0  0  0  0  0  0
   13.9920   -0.5226   23.3817 H   0  0  0  0  0  0  0  0  0  0  0  0
   10.6143   -2.0253   21.2266 H   0  0  0  0  0  0  0  0  0  0  0  0
    4.9151    1.7511   16.7471 H   0  0  0  0  0  0  0  0  0  0  0  0
    7.6455   -0.9765   18.1038 H   0  0  0  0  0  0  0  0  0  0  0  0
    7.5128   -2.5277   23.3386 H   0  0  0  0  0  0  0  0  0  0  0  0
    8.7593   -2.9102   22.1430 H   0  0  0  0  0  0  0  0  0  0  0  0
    7.0601   -2.7254   20.5715 H   0  0  0  0  0  0  0  0  0  0  0  0
    5.9526   -1.9963   21.7706 H   0  0  0  0  0  0  0  0  0  0  0  0
    6.9217    0.3181   23.5731 H   0  0  0  0  0  0  0  0  0  0  0  0
    7.6678   -0.8544   24.6617 H   0  0  0  0  0  0  0  0  0  0  0  0
    9.0574    2.9801   24.7208 H   0  0  0  0  0  0  0  0  0  0  0  0
    8.0401    2.5365   23.3488 H   0  0  0  0  0  0  0  0  0  0  0  0
  1  2  3  0  0  0  0
  2 24  1  0  0  0  0
  3  4  2  0  0  0  0
  3  5  1  0  0  0  0
  4  6  1  0  0  0  0
  5 12  2  0  0  0  0
  6 13  2  0  0  0  0
  7  8  2  0  0  0  0
  7 14  1  0  0  0  0
  8 17  1  0  0  0  0
  9 15  1  0  0  0  0
  9 17  2  0  0  0  0
 10 12  1  0  0  0  0
 10 25  2  0  0  0  0
 11 16  2  0  0  0  0
 11 25  1  0  0  0  0
 12 13  1  0  0  0  0
 13 16  1  0  0  0  0
 14 15  2  0  0  0  0
 14 18  1  0  0  0  0
 15 23  1  0  0  0  0
 16 26  1  0  0  0  0
 17 30  1  0  0  0  0
 18 27  1  0  0  0  0
 18 28  2  0  0  0  0
 19 23  1  0  0  0  0
 19 26  1  0  0  0  0
 19 29  2  0  0  0  0
 20 21  1  0  0  0  0
 20 23  1  0  0  0  0
 21 26  1  0  0  0  0
 22 23  1  0  0  0  0
 22 27  1  0  0  0  0
 24 27  1  0  0  0  0
  1 31  1  0  0  0  0
  3 32  1  0  0  0  0
  4 33  1  0  0  0  0
  5 34  1  0  0  0  0
  6 35  1  0  0  0  0
  7 36  1  0  0  0  0
  8 37  1  0  0  0  0
  9 38  1  0  0  0  0
 10 39  1  0  0  0  0
 11 40  1  0  0  0  0
 20 41  1  0  0  0  0
 20 42  1  0  0  0  0
 21 43  1  0  0  0  0
 21 44  1  0  0  0  0
 22 45  1  0  0  0  0
 22 46  1  0  0  0  0
 24 47  1  0  0  0  0
 24 48  1  0  0  0  0
M  END
> <scaffold>
tetrahydroisoquinoline-5spiro-isoquinoline

> <compound>
PET-UNK-aa57768f-9

> <compound_smiles>
C#CCN1CC2(CCN(C2=O)c3cncc4c3cccc4)c5cc(ccc5C1=O)Cl

> <enantiomer_smiles>
C#CCN1C[C@]2(CCN(C2=O)c3cncc4c3cccc4)c5cc(ccc5C1=O)Cl

> <clash_score>
0

> <docking_score>
3.4028234663852886e+38

> <overlap_score>
1.0

> <MMFF_internal_energy>
147.12562877388459

> <docked_smiles>
C#CCN1C[C@]2(CCN(C2=O)c3cncc4c3cccc4)c5cc(ccc5C1=O)Cl

$$$$
ALP-POS-4483ae88-1_1
  -OEChem-01042202303D

 44 48  0     1  0  0  0  0  0999 V2000
    3.3444    2.6278   20.4409 C   0  0  0  0  0  0  0  0  0  0  0  0
    3.8974    1.9290   21.5048 C   0  0  0  0  0  0  0  0  0  0  0  0
    3.7877    2.4205   19.1658 C   0  0  0  0  0  0  0  0  0  0  0  0
    4.8986    1.0232   21.2985 C   0  0  0  0  0  0  0  0  0  0  0  0
   12.0781    0.0316   24.1532 C   0  0  0  0  0  0  0  0  0  0  0  0
   12.9147   -0.6032   23.2559 C   0  0  0  0  0  0  0  0  0  0  0  0
   11.0005   -1.4332   22.0435 C   0  0  0  0  0  0  0  0  0  0  0  0
    5.3288    1.2339   17.6062 C   0  0  0  0  0  0  0  0  0  0  0  0
    6.8449   -0.2893   18.3747 C   0  0  0  0  0  0  0  0  0  0  0  0
    4.8238    1.4906   18.9051 C   0  0  0  0  0  0  0  0  0  0  0  0
    5.3995    0.7732   19.9944 C   0  0  0  0  0  0  0  0  0  0  0  0
   10.1421   -0.7766   22.9242 C   0  0  0  0  0  0  0  0  0  0  0  0
    6.4452   -0.1472   19.6975 C   0  0  0  0  0  0  0  0  0  0  0  0
   10.7056   -0.0626   23.9890 C   0  0  0  0  0  0  0  0  0  0  0  0
   12.3697   -1.3298   22.2224 C   0  0  0  0  0  0  0  0  0  0  0  0
    8.2504    0.0168   21.4265 C   0  0  0  0  0  0  0  0  0  0  0  0
    8.0155   -2.1541   22.4325 C   0  0  0  0  0  0  0  0  0  0  0  0
    6.9880   -1.9367   21.3575 C   0  0  0  0  0  0  0  0  0  0  0  0
    7.8737   -0.1194   23.8825 C   0  0  0  0  0  0  0  0  0  0  0  0
    8.6253   -0.7606   22.6923 C   0  0  3  0  0  0  0  0  0  0  0  0
    6.3072    0.3768   17.3417 N   0  0  0  0  0  0  0  0  0  0  0  0
    8.6625    1.0133   24.4989 N   0  0  0  0  0  0  0  0  0  0  0  0
    7.2305   -0.6898   20.7785 N   0  0  0  0  0  0  0  0  0  0  0  0
    8.8304    1.0394   21.0779 O   0  0  0  0  0  0  0  0  0  0  0  0
    9.7279   -0.4360   26.1442 O   0  0  0  0  0  0  0  0  0  0  0  0
   10.7109    1.8102   25.5179 O   0  0  0  0  0  0  0  0  0  0  0  0
    9.9496    0.5589   24.9527 S   0  0  0  0  0  0  0  0  0  0  0  0
   13.4300   -2.1361   21.1054 Cl  0  0  0  0  0  0  0  0  0  0  0  0
    2.5443    3.3508   20.6368 H   0  0  0  0  0  0  0  0  0  0  0  0
    3.5189    2.1137   22.5166 H   0  0  0  0  0  0  0  0  0  0  0  0
    3.3421    2.9744   18.3363 H   0  0  0  0  0  0  0  0  0  0  0  0
    5.3131    0.4893   22.1569 H   0  0  0  0  0  0  0  0  0  0  0  0
   12.5130    0.5940   24.9769 H   0  0  0  0  0  0  0  0  0  0  0  0
   13.9928   -0.5158   23.3774 H   0  0  0  0  0  0  0  0  0  0  0  0
   10.6109   -2.0131   21.2228 H   0  0  0  0  0  0  0  0  0  0  0  0
    4.9151    1.7511   16.7471 H   0  0  0  0  0  0  0  0  0  0  0  0
    7.6455   -0.9765   18.1038 H   0  0  0  0  0  0  0  0  0  0  0  0
    7.5152   -2.5498   23.3301 H   0  0  0  0  0  0  0  0  0  0  0  0
    8.7636   -2.9047   22.1422 H   0  0  0  0  0  0  0  0  0  0  0  0
    7.0605   -2.7247   20.5713 H   0  0  0  0  0  0  0  0  0  0  0  0
    5.9528   -1.9968   21.7703 H   0  0  0  0  0  0  0  0  0  0  0  0
    6.8923    0.2870   23.5893 H   0  0  0  0  0  0  0  0  0  0  0  0
    7.6604   -0.8568   24.6751 H   0  0  0  0  0  0  0  0  0  0  0  0
    8.4453    1.9139   24.0242 H   0  0  0  0  0  0  0  0  0  0  0  0
  1  2  2  0  0  0  0
  1  3  1  0  0  0  0
  2  4  1  0  0  0  0
  3 10  2  0  0  0  0
  4 11  2  0  0  0  0
  5  6  2  0  0  0  0
  5 14  1  0  0  0  0
  6 15  1  0  0  0  0
  7 12  1  0  0  0  0
  7 15  2  0  0  0  0
  8 10  1  0  0  0  0
  8 21  2  0  0  0  0
  9 13  2  0  0  0  0
  9 21  1  0  0  0  0
 10 11  1  0  0  0  0
 11 13  1  0  0  0  0
 12 14  2  0  0  0  0
 12 20  1  0  0  0  0
 13 23  1  0  0  0  0
 14 27  1  0  0  0  0
 15 28  1  0  0  0  0
 16 20  1  0  0  0  0
 16 23  1  0  0  0  0
 16 24  2  0  0  0  0
 17 18  1  0  0  0  0
 17 20  1  0  0  0  0
 18 23  1  0  0  0  0
 19 20  1  0  0  0  0
 19 22  1  0  0  0  0
 22 27  1  0  0  0  0
 25 27  2  0  0  0  0
 26 27  2  0  0  0  0
  1 29  1  0  0  0  0
  2 30  1  0  0  0  0
  3 31  1  0  0  0  0
  4 32  1  0  0  0  0
  5 33  1  0  0  0  0
  6 34  1  0  0  0  0
  7 35  1  0  0  0  0
  8 36  1  0  0  0  0
  9 37  1  0  0  0  0
 17 38  1  0  0  0  0
 17 39  1  0  0  0  0
 18 40  1  0  0  0  0
 18 41  1  0  0  0  0
 19 42  1  0  0  0  0
 19 43  1  0  0  0  0
 22 44  1  0  0  0  0
M  END
> <scaffold>
tetralinlike-5spiro-isoquinoline

> <compound>
ALP-POS-4483ae88-1

> <compound_smiles>
c1ccc2c(c1)cncc2N3CCC4(C3=O)CNS(=O)(=O)c5c4cc(cc5)Cl

> <enantiomer_smiles>
c1ccc2c(c1)cncc2N3CC[C@]4(C3=O)CNS(=O)(=O)c5c4cc(cc5)Cl

> <clash_score>
0.7237397372916018

> <docking_score>
3.4028234663852886e+38

> <overlap_score>
0.9897217750549316

> <MMFF_internal_energy>
217.43698544128688

> <docked_smiles>
c1ccc2c(c1)cncc2N3CC[C@]4(C3=O)CNS(=O)(=O)c5c4cc(cc5)Cl

$$$$
JOH-MSK-1f2dff76-3_1
  -OEChem-01042202303D

 44 48  0     1  0  0  0  0  0999 V2000
    3.3444    2.6278   20.4409 C   0  0  0  0  0  0  0  0  0  0  0  0
    3.8974    1.9290   21.5048 C   0  0  0  0  0  0  0  0  0  0  0  0
    3.7877    2.4205   19.1658 C   0  0  0  0  0  0  0  0  0  0  0  0
    4.8986    1.0232   21.2985 C   0  0  0  0  0  0  0  0  0  0  0  0
   12.0781    0.0316   24.1532 C   0  0  0  0  0  0  0  0  0  0  0  0
   12.9147   -0.6032   23.2559 C   0  0  0  0  0  0  0  0  0  0  0  0
   11.0005   -1.4332   22.0435 C   0  0  0  0  0  0  0  0  0  0  0  0
    5.3288    1.2339   17.6062 C   0  0  0  0  0  0  0  0  0  0  0  0
    6.8449   -0.2893   18.3747 C   0  0  0  0  0  0  0  0  0  0  0  0
    4.8238    1.4906   18.9051 C   0  0  0  0  0  0  0  0  0  0  0  0
    5.3995    0.7732   19.9944 C   0  0  0  0  0  0  0  0  0  0  0  0
   10.7056   -0.0626   23.9890 C   0  0  0  0  0  0  0  0  0  0  0  0
   10.1421   -0.7766   22.9242 C   0  0  0  0  0  0  0  0  0  0  0  0
    6.4452   -0.1472   19.6975 C   0  0  0  0  0  0  0  0  0  0  0  0
   12.3697   -1.3298   22.2224 C   0  0  0  0  0  0  0  0  0  0  0  0
    6.9880   -1.9367   21.3575 C   0  0  0  0  0  0  0  0  0  0  0  0
    8.2504    0.0168   21.4265 C   0  0  0  0  0  0  0  0  0  0  0  0
    9.9496    0.5589   24.9527 C   0  0  0  0  0  0  0  0  0  0  0  0
    8.0155   -2.1541   22.4325 C   0  0  0  0  0  0  0  0  0  0  0  0
    7.8737   -0.1194   23.8825 C   0  0  0  0  0  0  0  0  0  0  0  0
    8.6253   -0.7606   22.6923 C   0  0  2  0  0  0  0  0  0  0  0  0
    6.3072    0.3768   17.3417 N   0  0  0  0  0  0  0  0  0  0  0  0
    7.2305   -0.6898   20.7785 N   0  0  0  0  0  0  0  0  0  0  0  0
    8.6625    1.0133   24.4989 N   0  3  0  0  0  0  0  0  0  0  0  0
    6.1280   -2.7639   21.0974 O   0  0  0  0  0  0  0  0  0  0  0  0
    8.7861    1.0641   21.1046 O   0  0  0  0  0  0  0  0  0  0  0  0
   13.4285   -2.1397   21.1067 Cl  0  0  0  0  0  0  0  0  0  0  0  0
    2.5443    3.3508   20.6368 H   0  0  0  0  0  0  0  0  0  0  0  0
    3.5189    2.1137   22.5166 H   0  0  0  0  0  0  0  0  0  0  0  0
    3.3421    2.9744   18.3363 H   0  0  0  0  0  0  0  0  0  0  0  0
    5.3131    0.4893   22.1569 H   0  0  0  0  0  0  0  0  0  0  0  0
   12.5031    0.5976   24.9743 H   0  0  0  0  0  0  0  0  0  0  0  0
   13.9926   -0.5172   23.3778 H   0  0  0  0  0  0  0  0  0  0  0  0
   10.6045   -2.0168   21.2242 H   0  0  0  0  0  0  0  0  0  0  0  0
    4.9151    1.7511   16.7471 H   0  0  0  0  0  0  0  0  0  0  0  0
    7.6455   -0.9765   18.1038 H   0  0  0  0  0  0  0  0  0  0  0  0
    9.7437   -0.1139   25.8239 H   0  0  0  0  0  0  0  0  0  0  0  0
   10.4433    1.4689   25.3788 H   0  0  0  0  0  0  0  0  0  0  0  0
    7.4969   -2.5682   23.3065 H   0  0  0  0  0  0  0  0  0  0  0  0
    8.7565   -2.8869   22.0948 H   0  0  0  0  0  0  0  0  0  0  0  0
    6.9010    0.3081   23.5887 H   0  0  0  0  0  0  0  0  0  0  0  0
    7.6806   -0.8376   24.6978 H   0  0  0  0  0  0  0  0  0  0  0  0
    8.1131    1.4065   25.2741 H   0  0  0  0  0  0  0  0  0  0  0  0
    8.7499    1.7688   23.8071 H   0  0  0  0  0  0  0  0  0  0  0  0
  1  2  2  0  0  0  0
  1  3  1  0  0  0  0
  2  4  1  0  0  0  0
  3 10  2  0  0  0  0
  4 11  2  0  0  0  0
  5  6  2  0  0  0  0
  5 12  1  0  0  0  0
  6 15  1  0  0  0  0
  7 13  1  0  0  0  0
  7 15  2  0  0  0  0
  8 10  1  0  0  0  0
  8 22  2  0  0  0  0
  9 14  2  0  0  0  0
  9 22  1  0  0  0  0
 10 11  1  0  0  0  0
 11 14  1  0  0  0  0
 12 13  2  0  0  0  0
 12 18  1  0  0  0  0
 13 21  1  1  0  0  0
 14 23  1  0  0  0  0
 15 27  1  0  0  0  0
 16 19  1  0  0  0  0
 16 23  1  0  0  0  0
 16 25  2  0  0  0  0
 17 21  1  6  0  0  0
 17 23  1  0  0  0  0
 17 26  2  0  0  0  0
 18 24  1  0  0  0  0
 19 21  1  6  0  0  0
 20 21  1  1  0  0  0
 20 24  1  0  0  0  0
  1 28  1  0  0  0  0
  2 29  1  0  0  0  0
  3 30  1  0  0  0  0
  4 31  1  0  0  0  0
  5 32  1  0  0  0  0
  6 33  1  0  0  0  0
  7 34  1  0  0  0  0
  8 35  1  0  0  0  0
  9 36  1  0  0  0  0
 18 37  1  0  0  0  0
 18 38  1  0  0  0  0
 19 39  1  0  0  0  0
 19 40  1  0  0  0  0
 20 41  1  0  0  0  0
 20 42  1  0  0  0  0
 24 43  1  0  0  0  0
 24 44  1  0  0  0  0
M  CHG  1  24   1
M  END
> <scaffold>
tetrahydroisoquinoline-5spiro-isoquinoline

> <compound>
JOH-MSK-1f2dff76-3

> <compound_smiles>
c1ccc2c(c1)cncc2N3C(=O)C[C@]4(C3=O)CNCc5c4cc(cc5)Cl

> <enantiomer_smiles>
c1ccc2c(c1)cncc2N3C(=O)C[C@]4(C3=O)CNCc5c4cc(cc5)Cl

> <clash_score>
0

> <docking_score>
3.4028234663852886e+38

> <overlap_score>
1.0

> <MMFF_internal_energy>
104.82922831517627

> <docked_smiles>
c1ccc2c(c1)cncc2N3C(=O)C[C@]4(C3=O)C[NH2+]Cc5c4cc(cc5)Cl

$$$$
JOH-MSK-1f2dff76-4_1
  -OEChem-01042202303D

 44 48  0     1  0  0  0  0  0999 V2000
    3.3444    2.6278   20.4409 C   0  0  0  0  0  0  0  0  0  0  0  0
    3.8974    1.9290   21.5048 C   0  0  0  0  0  0  0  0  0  0  0  0
    3.7877    2.4205   19.1658 C   0  0  0  0  0  0  0  0  0  0  0  0
    4.8986    1.0232   21.2985 C   0  0  0  0  0  0  0  0  0  0  0  0
   12.0781    0.0316   24.1532 C   0  0  0  0  0  0  0  0  0  0  0  0
   12.9147   -0.6032   23.2559 C   0  0  0  0  0  0  0  0  0  0  0  0
   11.0005   -1.4332   22.0435 C   0  0  0  0  0  0  0  0  0  0  0  0
    5.3288    1.2339   17.6062 C   0  0  0  0  0  0  0  0  0  0  0  0
    6.8449   -0.2893   18.3747 C   0  0  0  0  0  0  0  0  0  0  0  0
    4.8238    1.4906   18.9051 C   0  0  0  0  0  0  0  0  0  0  0  0
    5.3995    0.7732   19.9944 C   0  0  0  0  0  0  0  0  0  0  0  0
   10.7056   -0.0626   23.9890 C   0  0  0  0  0  0  0  0  0  0  0  0
   10.1421   -0.7766   22.9242 C   0  0  0  0  0  0  0  0  0  0  0  0
    6.4452   -0.1472   19.6975 C   0  0  0  0  0  0  0  0  0  0  0  0
   12.3697   -1.3298   22.2224 C   0  0  0  0  0  0  0  0  0  0  0  0
    6.9880   -1.9367   21.3575 C   0  0  0  0  0  0  0  0  0  0  0  0
    8.2504    0.0168   21.4265 C   0  0  0  0  0  0  0  0  0  0  0  0
    9.9496    0.5589   24.9527 C   0  0  0  0  0  0  0  0  0  0  0  0
    8.0155   -2.1541   22.4325 C   0  0  0  0  0  0  0  0  0  0  0  0
    7.8737   -0.1194   23.8825 C   0  0  0  0  0  0  0  0  0  0  0  0
    8.6253   -0.7606   22.6923 C   0  0  1  0  0  0  0  0  0  0  0  0
    6.3072    0.3768   17.3417 N   0  0  0  0  0  0  0  0  0  0  0  0
    7.2305   -0.6898   20.7785 N   0  0  0  0  0  0  0  0  0  0  0  0
    8.6625    1.0133   24.4989 N   0  3  0  0  0  0  0  0  0  0  0  0
    6.1222   -2.7599   21.1040 O   0  0  0  0  0  0  0  0  0  0  0  0
    8.7916    1.0601   21.1009 O   0  0  0  0  0  0  0  0  0  0  0  0
   13.4284   -2.1427   21.1088 Cl  0  0  0  0  0  0  0  0  0  0  0  0
    2.5443    3.3508   20.6368 H   0  0  0  0  0  0  0  0  0  0  0  0
    3.5189    2.1137   22.5166 H   0  0  0  0  0  0  0  0  0  0  0  0
    3.3421    2.9744   18.3363 H   0  0  0  0  0  0  0  0  0  0  0  0
    5.3131    0.4893   22.1569 H   0  0  0  0  0  0  0  0  0  0  0  0
   12.5035    0.5942   24.9765 H   0  0  0  0  0  0  0  0  0  0  0  0
   13.9925   -0.5211   23.3806 H   0  0  0  0  0  0  0  0  0  0  0  0
   10.6046   -2.0221   21.2278 H   0  0  0  0  0  0  0  0  0  0  0  0
    4.9151    1.7511   16.7471 H   0  0  0  0  0  0  0  0  0  0  0  0
    7.6455   -0.9765   18.1038 H   0  0  0  0  0  0  0  0  0  0  0  0
    9.7300   -0.0997   25.8311 H   0  0  0  0  0  0  0  0  0  0  0  0
   10.4617    1.4636   25.3687 H   0  0  0  0  0  0  0  0  0  0  0  0
    7.5383   -2.5827   23.3205 H   0  0  0  0  0  0  0  0  0  0  0  0
    8.7447   -2.8799   22.0510 H   0  0  0  0  0  0  0  0  0  0  0  0
    6.9008    0.3096   23.5872 H   0  0  0  0  0  0  0  0  0  0  0  0
    7.6790   -0.8369   24.6963 H   0  0  0  0  0  0  0  0  0  0  0  0
    8.1118    1.4191   25.2666 H   0  0  0  0  0  0  0  0  0  0  0  0
    8.7574    1.7601   23.7983 H   0  0  0  0  0  0  0  0  0  0  0  0
  1  2  2  0  0  0  0
  1  3  1  0  0  0  0
  2  4  1  0  0  0  0
  3 10  2  0  0  0  0
  4 11  2  0  0  0  0
  5  6  2  0  0  0  0
  5 12  1  0  0  0  0
  6 15  1  0  0  0  0
  7 13  1  0  0  0  0
  7 15  2  0  0  0  0
  8 10  1  0  0  0  0
  8 22  2  0  0  0  0
  9 14  2  0  0  0  0
  9 22  1  0  0  0  0
 10 11  1  0  0  0  0
 11 14  1  0  0  0  0
 12 13  2  0  0  0  0
 12 18  1  0  0  0  0
 13 21  1  6  0  0  0
 14 23  1  0  0  0  0
 15 27  1  0  0  0  0
 16 19  1  0  0  0  0
 16 23  1  0  0  0  0
 16 25  2  0  0  0  0
 17 21  1  1  0  0  0
 17 23  1  0  0  0  0
 17 26  2  0  0  0  0
 18 24  1  0  0  0  0
 19 21  1  1  0  0  0
 20 21  1  6  0  0  0
 20 24  1  0  0  0  0
  1 28  1  0  0  0  0
  2 29  1  0  0  0  0
  3 30  1  0  0  0  0
  4 31  1  0  0  0  0
  5 32  1  0  0  0  0
  6 33  1  0  0  0  0
  7 34  1  0  0  0  0
  8 35  1  0  0  0  0
  9 36  1  0  0  0  0
 18 37  1  0  0  0  0
 18 38  1  0  0  0  0
 19 39  1  0  0  0  0
 19 40  1  0  0  0  0
 20 41  1  0  0  0  0
 20 42  1  0  0  0  0
 24 43  1  0  0  0  0
 24 44  1  0  0  0  0
M  CHG  1  24   1
M  END
> <scaffold>
tetrahydroisoquinoline-5spiro-isoquinoline

> <compound>
JOH-MSK-1f2dff76-4

> <compound_smiles>
c1ccc2c(c1)cncc2N3C(=O)C[C@@]4(C3=O)CNCc5c4cc(cc5)Cl

> <enantiomer_smiles>
c1ccc2c(c1)cncc2N3C(=O)C[C@@]4(C3=O)CNCc5c4cc(cc5)Cl

> <clash_score>
0

> <docking_score>
3.4028234663852886e+38

> <overlap_score>
1.0

> <MMFF_internal_energy>
104.87749740113154

> <docked_smiles>
c1ccc2c(c1)cncc2N3C(=O)C[C@@]4(C3=O)C[NH2+]Cc5c4cc(cc5)Cl

$$$$
DAR-DIA-0f7b7cd9-8_1
  -OEChem-01042202303D

 40 44  0     1  0  0  0  0  0999 V2000
    3.3444    2.6278   20.4409 C   0  0  0  0  0  0  0  0  0  0  0  0
    3.8974    1.9290   21.5048 C   0  0  0  0  0  0  0  0  0  0  0  0
    3.7877    2.4205   19.1658 C   0  0  0  0  0  0  0  0  0  0  0  0
    4.8986    1.0232   21.2985 C   0  0  0  0  0  0  0  0  0  0  0  0
   12.0781    0.0316   24.1532 C   0  0  0  0  0  0  0  0  0  0  0  0
   12.9147   -0.6032   23.2559 C   0  0  0  0  0  0  0  0  0  0  0  0
   11.0005   -1.4332   22.0435 C   0  0  0  0  0  0  0  0  0  0  0  0
    5.3288    1.2339   17.6062 C   0  0  0  0  0  0  0  0  0  0  0  0
    6.8449   -0.2893   18.3747 C   0  0  0  0  0  0  0  0  0  0  0  0
    4.8238    1.4906   18.9051 C   0  0  0  0  0  0  0  0  0  0  0  0
    5.3995    0.7732   19.9944 C   0  0  0  0  0  0  0  0  0  0  0  0
   10.1421   -0.7766   22.9242 C   0  0  0  0  0  0  0  0  0  0  0  0
    6.4452   -0.1472   19.6975 C   0  0  0  0  0  0  0  0  0  0  0  0
   10.7056   -0.0626   23.9890 C   0  0  0  0  0  0  0  0  0  0  0  0
   12.3697   -1.3298   22.2224 C   0  0  0  0  0  0  0  0  0  0  0  0
    8.2504    0.0168   21.4265 C   0  0  0  0  0  0  0  0  0  0  0  0
    8.0155   -2.1541   22.4325 C   0  0  0  0  0  0  0  0  0  0  0  0
    7.8737   -0.1194   23.8825 C   0  0  0  0  0  0  0  0  0  0  0  0
    8.6625    1.0133   24.4989 C   0  0  0  0  0  0  0  0  0  0  0  0
    8.6253   -0.7606   22.6923 C   0  0  3  0  0  0  0  0  0  0  0  0
    6.3072    0.3768   17.3417 N   0  0  0  0  0  0  0  0  0  0  0  0
    7.2305   -0.6898   20.7785 N   0  0  0  0  0  0  0  0  0  0  0  0
    8.7965    1.0445   21.1088 O   0  0  0  0  0  0  0  0  0  0  0  0
    8.3696   -3.1620   23.0389 O   0  0  0  0  0  0  0  0  0  0  0  0
    9.9496    0.5589   24.9527 O   0  0  0  0  0  0  0  0  0  0  0  0
    6.9880   -1.9367   21.3575 S   0  0  0  0  0  0  0  0  0  0  0  0
   13.4281   -2.1368   21.1043 Cl  0  0  0  0  0  0  0  0  0  0  0  0
    2.5443    3.3508   20.6368 H   0  0  0  0  0  0  0  0  0  0  0  0
    3.5189    2.1137   22.5166 H   0  0  0  0  0  0  0  0  0  0  0  0
    3.3421    2.9744   18.3363 H   0  0  0  0  0  0  0  0  0  0  0  0
    5.3131    0.4893   22.1569 H   0  0  0  0  0  0  0  0  0  0  0  0
   12.5011    0.5886   24.9840 H   0  0  0  0  0  0  0  0  0  0  0  0
   13.9924   -0.5219   23.3816 H   0  0  0  0  0  0  0  0  0  0  0  0
   10.6019   -2.0141   21.2221 H   0  0  0  0  0  0  0  0  0  0  0  0
    4.9151    1.7511   16.7471 H   0  0  0  0  0  0  0  0  0  0  0  0
    7.6455   -0.9765   18.1038 H   0  0  0  0  0  0  0  0  0  0  0  0
    7.6342   -0.8741   24.6481 H   0  0  0  0  0  0  0  0  0  0  0  0
    6.9074    0.2841   23.5375 H   0  0  0  0  0  0  0  0  0  0  0  0
    8.8474    1.7869   23.7488 H   0  0  0  0  0  0  0  0  0  0  0  0
    8.1377    1.4902   25.3320 H   0  0  0  0  0  0  0  0  0  0  0  0
  1  2  2  0  0  0  0
  1  3  1  0  0  0  0
  2  4  1  0  0  0  0
  3 10  2  0  0  0  0
  4 11  2  0  0  0  0
  5  6  2  0  0  0  0
  5 14  1  0  0  0  0
  6 15  1  0  0  0  0
  7 12  1  0  0  0  0
  7 15  2  0  0  0  0
  8 10  1  0  0  0  0
  8 21  2  0  0  0  0
  9 13  2  0  0  0  0
  9 21  1  0  0  0  0
 10 11  1  0  0  0  0
 11 13  1  0  0  0  0
 12 14  2  0  0  0  0
 12 20  1  0  0  0  0
 13 22  1  0  0  0  0
 14 25  1  0  0  0  0
 15 27  1  0  0  0  0
 16 20  1  0  0  0  0
 16 22  1  0  0  0  0
 16 23  2  0  0  0  0
 17 20  1  0  0  0  0
 17 24  2  0  0  0  0
 17 26  1  0  0  0  0
 18 19  1  0  0  0  0
 18 20  1  0  0  0  0
 19 25  1  0  0  0  0
 22 26  1  0  0  0  0
  1 28  1  0  0  0  0
  2 29  1  0  0  0  0
  3 30  1  0  0  0  0
  4 31  1  0  0  0  0
  5 32  1  0  0  0  0
  6 33  1  0  0  0  0
  7 34  1  0  0  0  0
  8 35  1  0  0  0  0
  9 36  1  0  0  0  0
 18 37  1  0  0  0  0
 18 38  1  0  0  0  0
 19 39  1  0  0  0  0
 19 40  1  0  0  0  0
M  END
> <scaffold>
chromane-5spiro-isoquinoline

> <compound>
DAR-DIA-0f7b7cd9-8

> <compound_smiles>
c1ccc2c(c1)cncc2N3C(=O)C4(CCOc5c4cc(cc5)Cl)C(=O)S3

> <enantiomer_smiles>
c1ccc2c(c1)cncc2N3C(=O)[C@@]4(CCOc5c4cc(cc5)Cl)C(=O)S3

> <clash_score>
0

> <docking_score>
3.4028234663852886e+38

> <overlap_score>
0.9847281575202942

> <MMFF_internal_energy>
174.66505527013967

> <docked_smiles>
c1ccc2c(c1)cncc2N3C(=O)[C@@]4(CCOc5c4cc(cc5)Cl)C(=O)S3

$$$$
PET-UNK-aa57768f-3_1
  -OEChem-01042202303D

 48 52  0     1  0  0  0  0  0999 V2000
    6.0701    2.7211   25.8759 C   0  0  0  0  0  0  0  0  0  0  0  0
    7.0525    2.5349   25.2114 C   0  0  0  0  0  0  0  0  0  0  0  0
    3.3444    2.6278   20.4409 C   0  0  0  0  0  0  0  0  0  0  0  0
    3.8974    1.9290   21.5048 C   0  0  0  0  0  0  0  0  0  0  0  0
    3.7877    2.4205   19.1658 C   0  0  0  0  0  0  0  0  0  0  0  0
    4.8986    1.0232   21.2985 C   0  0  0  0  0  0  0  0  0  0  0  0
   12.0781    0.0316   24.1532 C   0  0  0  0  0  0  0  0  0  0  0  0
   12.9147   -0.6032   23.2559 C   0  0  0  0  0  0  0  0  0  0  0  0
   11.0005   -1.4332   22.0435 C   0  0  0  0  0  0  0  0  0  0  0  0
    5.3288    1.2339   17.6062 C   0  0  0  0  0  0  0  0  0  0  0  0
    6.8449   -0.2893   18.3747 C   0  0  0  0  0  0  0  0  0  0  0  0
    4.8238    1.4906   18.9051 C   0  0  0  0  0  0  0  0  0  0  0  0
    5.3995    0.7732   19.9944 C   0  0  0  0  0  0  0  0  0  0  0  0
   10.7056   -0.0626   23.9890 C   0  0  0  0  0  0  0  0  0  0  0  0
   10.1421   -0.7766   22.9242 C   0  0  0  0  0  0  0  0  0  0  0  0
    6.4452   -0.1472   19.6975 C   0  0  0  0  0  0  0  0  0  0  0  0
   12.3697   -1.3298   22.2224 C   0  0  0  0  0  0  0  0  0  0  0  0
    9.9496    0.5589   24.9527 C   0  0  0  0  0  0  0  0  0  0  0  0
    8.2504    0.0168   21.4265 C   0  0  0  0  0  0  0  0  0  0  0  0
    8.0155   -2.1541   22.4325 C   0  0  0  0  0  0  0  0  0  0  0  0
    6.9880   -1.9367   21.3575 C   0  0  0  0  0  0  0  0  0  0  0  0
    7.8737   -0.1194   23.8825 C   0  0  0  0  0  0  0  0  0  0  0  0
    8.6253   -0.7606   22.6923 C   0  0  1  0  0  0  0  0  0  0  0  0
    8.2515    2.3131   24.3993 C   0  0  0  0  0  0  0  0  0  0  0  0
    6.3072    0.3768   17.3417 N   0  0  0  0  0  0  0  0  0  0  0  0
    7.2305   -0.6898   20.7785 N   0  0  0  0  0  0  0  0  0  0  0  0
    8.6625    1.0133   24.4989 N   0  0  0  0  0  0  0  0  0  0  0  0
   10.3195    0.7180   26.1132 O   0  0  0  0  0  0  0  0  0  0  0  0
    8.8318    1.0393   21.0797 O   0  0  0  0  0  0  0  0  0  0  0  0
   13.4288   -2.1465   21.1124 Cl  0  0  0  0  0  0  0  0  0  0  0  0
    5.1989    2.8860   26.4658 H   0  0  0  0  0  0  0  0  0  0  0  0
    2.5443    3.3508   20.6368 H   0  0  0  0  0  0  0  0  0  0  0  0
    3.5189    2.1137   22.5166 H   0  0  0  0  0  0  0  0  0  0  0  0
    3.3421    2.9744   18.3363 H   0  0  0  0  0  0  0  0  0  0  0  0
    5.3131    0.4893   22.1569 H   0  0  0  0  0  0  0  0  0  0  0  0
   12.5188    0.5961   24.9710 H   0  0  0  0  0  0  0  0  0  0  0  0
   13.9920   -0.5226   23.3817 H   0  0  0  0  0  0  0  0  0  0  0  0
   10.6143   -2.0253   21.2266 H   0  0  0  0  0  0  0  0  0  0  0  0
    4.9151    1.7511   16.7471 H   0  0  0  0  0  0  0  0  0  0  0  0
    7.6455   -0.9765   18.1038 H   0  0  0  0  0  0  0  0  0  0  0  0
    7.5128   -2.5277   23.3386 H   0  0  0  0  0  0  0  0  0  0  0  0
    8.7593   -2.9102   22.1430 H   0  0  0  0  0  0  0  0  0  0  0  0
    7.0601   -2.7254   20.5715 H   0  0  0  0  0  0  0  0  0  0  0  0
    5.9526   -1.9963   21.7706 H   0  0  0  0  0  0  0  0  0  0  0  0
    6.9217    0.3181   23.5731 H   0  0  0  0  0  0  0  0  0  0  0  0
    7.6678   -0.8544   24.6617 H   0  0  0  0  0  0  0  0  0  0  0  0
    9.0574    2.9801   24.7208 H   0  0  0  0  0  0  0  0  0  0  0  0
    8.0401    2.5365   23.3488 H   0  0  0  0  0  0  0  0  0  0  0  0
  1  2  3  0  0  0  0
  2 24  1  0  0  0  0
  3  4  2  0  0  0  0
  3  5  1  0  0  0  0
  4  6  1  0  0  0  0
  5 12  2  0  0  0  0
  6 13  2  0  0  0  0
  7  8  2  0  0  0  0
  7 14  1  0  0  0  0
  8 17  1  0  0  0  0
  9 15  1  0  0  0  0
  9 17  2  0  0  0  0
 10 12  1  0  0  0  0
 10 25  2  0  0  0  0
 11 16  2  0  0  0  0
 11 25  1  0  0  0  0
 12 13  1  0  0  0  0
 13 16  1  0  0  0  0
 14 15  2  0  0  0  0
 14 18  1  0  0  0  0
 15 23  1  1  0  0  0
 16 26  1  0  0  0  0
 17 30  1  0  0  0  0
 18 27  1  0  0  0  0
 18 28  2  0  0  0  0
 19 23  1  1  0  0  0
 19 26  1  0  0  0  0
 19 29  2  0  0  0  0
 20 21  1  0  0  0  0
 20 23  1  6  0  0  0
 21 26  1  0  0  0  0
 22 23  1  6  0  0  0
 22 27  1  0  0  0  0
 24 27  1  0  0  0  0
  1 31  1  0  0  0  0
  3 32  1  0  0  0  0
  4 33  1  0  0  0  0
  5 34  1  0  0  0  0
  6 35  1  0  0  0  0
  7 36  1  0  0  0  0
  8 37  1  0  0  0  0
  9 38  1  0  0  0  0
 10 39  1  0  0  0  0
 11 40  1  0  0  0  0
 20 41  1  0  0  0  0
 20 42  1  0  0  0  0
 21 43  1  0  0  0  0
 21 44  1  0  0  0  0
 22 45  1  0  0  0  0
 22 46  1  0  0  0  0
 24 47  1  0  0  0  0
 24 48  1  0  0  0  0
M  END
> <scaffold>
tetrahydroisoquinoline-5spiro-isoquinoline

> <compound>
PET-UNK-aa57768f-3

> <compound_smiles>
C#CCN1C[C@]2(CCN(C2=O)c3cncc4c3cccc4)c5cc(ccc5C1=O)Cl

> <enantiomer_smiles>
C#CCN1C[C@]2(CCN(C2=O)c3cncc4c3cccc4)c5cc(ccc5C1=O)Cl

> <clash_score>
0

> <docking_score>
3.4028234663852886e+38

> <overlap_score>
1.0

> <MMFF_internal_energy>
147.12562877388459

> <docked_smiles>
C#CCN1C[C@]2(CCN(C2=O)c3cncc4c3cccc4)c5cc(ccc5C1=O)Cl

$$$$
EDJ-MED-d7486dd1-1_1
  -OEChem-01042202303D

 53 57  0     1  0  0  0  0  0999 V2000
   12.0781    0.0316   24.1532 C   0  0  0  0  0  0  0  0  0  0  0  0
   12.9147   -0.6032   23.2559 C   0  0  0  0  0  0  0  0  0  0  0  0
    3.7877    2.4205   19.1658 C   0  0  0  0  0  0  0  0  0  0  0  0
   11.0005   -1.4332   22.0435 C   0  0  0  0  0  0  0  0  0  0  0  0
    3.8974    1.9290   21.5048 C   0  0  0  0  0  0  0  0  0  0  0  0
    5.3288    1.2339   17.6062 C   0  0  0  0  0  0  0  0  0  0  0  0
    6.8449   -0.2893   18.3747 C   0  0  0  0  0  0  0  0  0  0  0  0
    4.8238    1.4906   18.9051 C   0  0  0  0  0  0  0  0  0  0  0  0
    5.3995    0.7732   19.9944 C   0  0  0  0  0  0  0  0  0  0  0  0
   10.1421   -0.7766   22.9242 C   0  0  0  0  0  0  0  0  0  0  0  0
    4.8986    1.0232   21.2985 C   0  0  0  0  0  0  0  0  0  0  0  0
    6.4452   -0.1472   19.6975 C   0  0  0  0  0  0  0  0  0  0  0  0
   10.7056   -0.0626   23.9890 C   0  0  0  0  0  0  0  0  0  0  0  0
    3.3444    2.6278   20.4409 C   0  0  0  0  0  0  0  0  0  0  0  0
   12.3697   -1.3298   22.2224 C   0  0  0  0  0  0  0  0  0  0  0  0
    8.0155   -2.1541   22.4325 C   0  0  0  0  0  0  0  0  0  0  0  0
    7.8737   -0.1194   23.8825 C   0  0  0  0  0  0  0  0  0  0  0  0
    6.9880   -1.9367   21.3575 C   0  0  0  0  0  0  0  0  0  0  0  0
    8.2504    0.0168   21.4265 C   0  0  0  0  0  0  0  0  0  0  0  0
    8.6625    1.0133   24.4989 C   0  0  0  0  0  0  0  0  0  0  0  0
    8.6253   -0.7606   22.6923 C   0  0  3  0  0  0  0  0  0  0  0  0
    5.4193    0.3289   22.5244 C   0  0  0  0  0  0  0  0  0  0  0  0
    2.9187    5.3188   21.0317 C   0  0  0  0  0  0  0  0  0  0  0  0
    6.3072    0.3768   17.3417 N   0  0  0  0  0  0  0  0  0  0  0  0
    7.2305   -0.6898   20.7785 N   0  0  3  0  0  0  0  0  0  0  0  0
    1.2816    3.9279   19.5282 O   0  0  0  0  0  0  0  0  0  0  0  0
    1.3942    3.4376   21.9965 O   0  0  0  0  0  0  0  0  0  0  0  0
    9.9496    0.5589   24.9527 O   0  0  0  0  0  0  0  0  0  0  0  0
    2.0613    3.7863   20.7496 S   0  0  0  0  0  0  0  0  0  0  0  0
   13.4302   -2.1390   21.1079 Cl  0  0  0  0  0  0  0  0  0  0  0  0
   12.5033    0.5965   24.9762 H   0  0  0  0  0  0  0  0  0  0  0  0
   13.9932   -0.5167   23.3782 H   0  0  0  0  0  0  0  0  0  0  0  0
    3.3486    2.9686   18.3279 H   0  0  0  0  0  0  0  0  0  0  0  0
   10.6197   -2.0176   21.2227 H   0  0  0  0  0  0  0  0  0  0  0  0
    3.5147    2.1141   22.5169 H   0  0  0  0  0  0  0  0  0  0  0  0
    4.9144    1.7514   16.7475 H   0  0  0  0  0  0  0  0  0  0  0  0
    7.6452   -0.9761   18.1017 H   0  0  0  0  0  0  0  0  0  0  0  0
    7.5137   -2.5241   23.3387 H   0  0  0  0  0  0  0  0  0  0  0  0
    8.7603   -2.9065   22.1414 H   0  0  0  0  0  0  0  0  0  0  0  0
    7.6406   -0.8783   24.6501 H   0  0  0  0  0  0  0  0  0  0  0  0
    6.9005    0.2680   23.5271 H   0  0  0  0  0  0  0  0  0  0  0  0
    7.0412   -2.7512   20.5911 H   0  0  0  0  0  0  0  0  0  0  0  0
    5.9579   -2.0155   21.7924 H   0  0  0  0  0  0  0  0  0  0  0  0
    7.8821    1.0371   21.6904 H   0  0  0  0  0  0  0  0  0  0  0  0
    9.1380    0.1874   20.7688 H   0  0  0  0  0  0  0  0  0  0  0  0
    8.8475    1.7847   23.7500 H   0  0  0  0  0  0  0  0  0  0  0  0
    8.1414    1.4832   25.3347 H   0  0  0  0  0  0  0  0  0  0  0  0
    4.8482   -0.5866   22.7085 H   0  0  0  0  0  0  0  0  0  0  0  0
    6.4783    0.0694   22.4193 H   0  0  0  0  0  0  0  0  0  0  0  0
    5.3323    0.9817   23.3999 H   0  0  0  0  0  0  0  0  0  0  0  0
    2.1789    6.0957   21.2307 H   0  0  0  0  0  0  0  0  0  0  0  0
    3.5792    5.1907   21.8905 H   0  0  0  0  0  0  0  0  0  0  0  0
    3.4957    5.5600   20.1377 H   0  0  0  0  0  0  0  0  0  0  0  0
  1  2  2  0  0  0  0
  1 13  1  0  0  0  0
  2 15  1  0  0  0  0
  3  8  2  0  0  0  0
  3 14  1  0  0  0  0
  4 10  1  0  0  0  0
  4 15  2  0  0  0  0
  5 11  1  0  0  0  0
  5 14  2  0  0  0  0
  6  8  1  0  0  0  0
  6 24  2  0  0  0  0
  7 12  2  0  0  0  0
  7 24  1  0  0  0  0
  8  9  1  0  0  0  0
  9 11  2  0  0  0  0
  9 12  1  0  0  0  0
 10 13  2  0  0  0  0
 10 21  1  0  0  0  0
 11 22  1  0  0  0  0
 12 25  1  0  0  0  0
 13 28  1  0  0  0  0
 14 29  1  0  0  0  0
 15 30  1  0  0  0  0
 16 18  1  0  0  0  0
 16 21  1  0  0  0  0
 17 20  1  0  0  0  0
 17 21  1  0  0  0  0
 18 25  1  0  0  0  0
 19 21  1  0  0  0  0
 19 25  1  0  0  0  0
 20 28  1  0  0  0  0
 23 29  1  0  0  0  0
 26 29  2  0  0  0  0
 27 29  2  0  0  0  0
  1 31  1  0  0  0  0
  2 32  1  0  0  0  0
  3 33  1  0  0  0  0
  4 34  1  0  0  0  0
  5 35  1  0  0  0  0
  6 36  1  0  0  0  0
  7 37  1  0  0  0  0
 16 38  1  0  0  0  0
 16 39  1  0  0  0  0
 17 40  1  0  0  0  0
 17 41  1  0  0  0  0
 18 42  1  0  0  0  0
 18 43  1  0  0  0  0
 19 44  1  0  0  0  0
 19 45  1  0  0  0  0
 20 46  1  0  0  0  0
 20 47  1  0  0  0  0
 22 48  1  0  0  0  0
 22 49  1  0  0  0  0
 22 50  1  0  0  0  0
 23 51  1  0  0  0  0
 23 52  1  0  0  0  0
 23 53  1  0  0  0  0
M  END
> <scaffold>
chromane-5spiro-isoquinoline

> <compound>
EDJ-MED-d7486dd1-1

> <compound_smiles>
Cc1cc(cc2c1c(cnc2)N3CCC4(C3)CCOc5c4cc(cc5)Cl)S(=O)(=O)C

> <enantiomer_smiles>
Cc1cc(cc2c1c(cnc2)N3CC[C@@]4(C3)CCOc5c4cc(cc5)Cl)S(=O)(=O)C

> <clash_score>
0.6368649669208439

> <docking_score>
3.4028234663852886e+38

> <overlap_score>
0.9610306620597839

> <MMFF_internal_energy>
260.2214135842626

> <docked_smiles>
Cc1cc(cc2c1c(cnc2)N3CC[C@@]4(C3)CCOc5c4cc(cc5)Cl)S(=O)(=O)C

$$$$
VLA-MRT-8c78ee15-2_1
  -OEChem-01042202303D

 43 47  0     1  0  0  0  0  0999 V2000
    3.3444    2.6278   20.4409 C   0  0  0  0  0  0  0  0  0  0  0  0
    3.8974    1.9290   21.5048 C   0  0  0  0  0  0  0  0  0  0  0  0
    3.7877    2.4205   19.1658 C   0  0  0  0  0  0  0  0  0  0  0  0
    4.8986    1.0232   21.2985 C   0  0  0  0  0  0  0  0  0  0  0  0
   12.0781    0.0316   24.1532 C   0  0  0  0  0  0  0  0  0  0  0  0
   12.9147   -0.6032   23.2559 C   0  0  0  0  0  0  0  0  0  0  0  0
   11.0005   -1.4332   22.0435 C   0  0  0  0  0  0  0  0  0  0  0  0
    5.3288    1.2339   17.6062 C   0  0  0  0  0  0  0  0  0  0  0  0
    6.8449   -0.2893   18.3747 C   0  0  0  0  0  0  0  0  0  0  0  0
    4.8238    1.4906   18.9051 C   0  0  0  0  0  0  0  0  0  0  0  0
    5.3995    0.7732   19.9944 C   0  0  0  0  0  0  0  0  0  0  0  0
   10.7056   -0.0626   23.9890 C   0  0  0  0  0  0  0  0  0  0  0  0
   10.1421   -0.7766   22.9242 C   0  0  0  0  0  0  0  0  0  0  0  0
    6.4452   -0.1472   19.6975 C   0  0  0  0  0  0  0  0  0  0  0  0
   12.3697   -1.3298   22.2224 C   0  0  0  0  0  0  0  0  0  0  0  0
    8.2504    0.0168   21.4265 C   0  0  0  0  0  0  0  0  0  0  0  0
    6.9880   -1.9367   21.3575 C   0  0  0  0  0  0  0  0  0  0  0  0
    9.9496    0.5589   24.9527 C   0  0  0  0  0  0  0  0  0  0  0  0
    7.8737   -0.1194   23.8825 C   0  0  0  0  0  0  0  0  0  0  0  0
    8.6253   -0.7606   22.6923 C   0  0  1  0  0  0  0  0  0  0  0  0
    6.3072    0.3768   17.3417 N   0  0  0  0  0  0  0  0  0  0  0  0
    8.0155   -2.1541   22.4325 N   0  0  0  0  0  0  0  0  0  0  0  0
    7.2305   -0.6898   20.7785 N   0  0  0  0  0  0  0  0  0  0  0  0
    8.6625    1.0133   24.4989 N   0  3  0  0  0  0  0  0  0  0  0  0
    8.7725    1.0689   21.1190 O   0  0  0  0  0  0  0  0  0  0  0  0
    6.1660   -2.7933   21.1186 O   0  0  0  0  0  0  0  0  0  0  0  0
   13.4284   -2.1428   21.1090 Cl  0  0  0  0  0  0  0  0  0  0  0  0
    2.5443    3.3508   20.6368 H   0  0  0  0  0  0  0  0  0  0  0  0
    3.5189    2.1137   22.5166 H   0  0  0  0  0  0  0  0  0  0  0  0
    3.3421    2.9744   18.3363 H   0  0  0  0  0  0  0  0  0  0  0  0
    5.3131    0.4893   22.1569 H   0  0  0  0  0  0  0  0  0  0  0  0
   12.5033    0.5933   24.9775 H   0  0  0  0  0  0  0  0  0  0  0  0
   13.9924   -0.5217   23.3812 H   0  0  0  0  0  0  0  0  0  0  0  0
   10.6065   -2.0230   21.2270 H   0  0  0  0  0  0  0  0  0  0  0  0
    4.9151    1.7511   16.7471 H   0  0  0  0  0  0  0  0  0  0  0  0
    7.6455   -0.9765   18.1038 H   0  0  0  0  0  0  0  0  0  0  0  0
    9.7289   -0.1012   25.8303 H   0  0  0  0  0  0  0  0  0  0  0  0
   10.4623    1.4626   25.3717 H   0  0  0  0  0  0  0  0  0  0  0  0
    6.9054    0.3146   23.5791 H   0  0  0  0  0  0  0  0  0  0  0  0
    7.6868   -0.8359   24.6996 H   0  0  0  0  0  0  0  0  0  0  0  0
    8.2301   -2.9429   22.8417 H   0  0  0  0  0  0  0  0  0  0  0  0
    8.1089    1.4124   25.2681 H   0  0  0  0  0  0  0  0  0  0  0  0
    8.7560    1.7617   23.8007 H   0  0  0  0  0  0  0  0  0  0  0  0
  1  2  2  0  0  0  0
  1  3  1  0  0  0  0
  2  4  1  0  0  0  0
  3 10  2  0  0  0  0
  4 11  2  0  0  0  0
  5  6  2  0  0  0  0
  5 12  1  0  0  0  0
  6 15  1  0  0  0  0
  7 13  1  0  0  0  0
  7 15  2  0  0  0  0
  8 10  1  0  0  0  0
  8 21  2  0  0  0  0
  9 14  2  0  0  0  0
  9 21  1  0  0  0  0
 10 11  1  0  0  0  0
 11 14  1  0  0  0  0
 12 13  2  0  0  0  0
 12 18  1  0  0  0  0
 13 20  1  1  0  0  0
 14 23  1  0  0  0  0
 15 27  1  0  0  0  0
 16 20  1  6  0  0  0
 16 23  1  0  0  0  0
 16 25  2  0  0  0  0
 17 22  1  0  0  0  0
 17 23  1  0  0  0  0
 17 26  2  0  0  0  0
 18 24  1  0  0  0  0
 19 20  1  6  0  0  0
 19 24  1  0  0  0  0
 20 22  1  1  0  0  0
  1 28  1  0  0  0  0
  2 29  1  0  0  0  0
  3 30  1  0  0  0  0
  4 31  1  0  0  0  0
  5 32  1  0  0  0  0
  6 33  1  0  0  0  0
  7 34  1  0  0  0  0
  8 35  1  0  0  0  0
  9 36  1  0  0  0  0
 18 37  1  0  0  0  0
 18 38  1  0  0  0  0
 19 39  1  0  0  0  0
 19 40  1  0  0  0  0
 22 41  1  0  0  0  0
 24 42  1  0  0  0  0
 24 43  1  0  0  0  0
M  CHG  1  24   1
M  END
> <scaffold>
tetrahydroisoquinoline-5spiro-isoquinoline

> <compound>
VLA-MRT-8c78ee15-2

> <compound_smiles>
c1ccc2c(c1)cncc2N3C(=O)[C@]4(CNCc5c4cc(cc5)Cl)NC3=O

> <enantiomer_smiles>
c1ccc2c(c1)cncc2N3C(=O)[C@]4(CNCc5c4cc(cc5)Cl)NC3=O

> <clash_score>
0

> <docking_score>
3.4028234663852886e+38

> <overlap_score>
1.0

> <MMFF_internal_energy>
132.56819857450984

> <docked_smiles>
c1ccc2c(c1)cncc2N3C(=O)[C@]4(C[NH2+]Cc5c4cc(cc5)Cl)NC3=O

$$$$
PET-UNK-aa57768f-2_1
  -OEChem-01042202303D

 47 51  0     1  0  0  0  0  0999 V2000
    7.3060    2.1390   26.0232 C   0  0  0  0  0  0  0  0  0  0  0  0
    3.3444    2.6278   20.4409 C   0  0  0  0  0  0  0  0  0  0  0  0
    3.8974    1.9290   21.5048 C   0  0  0  0  0  0  0  0  0  0  0  0
    3.7877    2.4205   19.1658 C   0  0  0  0  0  0  0  0  0  0  0  0
    4.8986    1.0232   21.2985 C   0  0  0  0  0  0  0  0  0  0  0  0
   12.0781    0.0316   24.1532 C   0  0  0  0  0  0  0  0  0  0  0  0
   12.9147   -0.6032   23.2559 C   0  0  0  0  0  0  0  0  0  0  0  0
   11.0005   -1.4332   22.0435 C   0  0  0  0  0  0  0  0  0  0  0  0
    5.3288    1.2339   17.6062 C   0  0  0  0  0  0  0  0  0  0  0  0
    6.8449   -0.2893   18.3747 C   0  0  0  0  0  0  0  0  0  0  0  0
    4.8238    1.4906   18.9051 C   0  0  0  0  0  0  0  0  0  0  0  0
    5.3995    0.7732   19.9944 C   0  0  0  0  0  0  0  0  0  0  0  0
   10.7056   -0.0626   23.9890 C   0  0  0  0  0  0  0  0  0  0  0  0
   10.1421   -0.7766   22.9242 C   0  0  0  0  0  0  0  0  0  0  0  0
    6.4452   -0.1472   19.6975 C   0  0  0  0  0  0  0  0  0  0  0  0
   12.3697   -1.3298   22.2224 C   0  0  0  0  0  0  0  0  0  0  0  0
    9.9496    0.5589   24.9527 C   0  0  0  0  0  0  0  0  0  0  0  0
    8.2504    0.0168   21.4265 C   0  0  0  0  0  0  0  0  0  0  0  0
    8.0155   -2.1541   22.4325 C   0  0  0  0  0  0  0  0  0  0  0  0
    6.9880   -1.9367   21.3575 C   0  0  0  0  0  0  0  0  0  0  0  0
    7.8737   -0.1194   23.8825 C   0  0  0  0  0  0  0  0  0  0  0  0
    8.6253   -0.7606   22.6923 C   0  0  1  0  0  0  0  0  0  0  0  0
    8.0842    2.2156   24.7882 C   0  0  0  0  0  0  0  0  0  0  0  0
    6.6877    2.0818   27.0034 N   0  0  0  0  0  0  0  0  0  0  0  0
    6.3072    0.3768   17.3417 N   0  0  0  0  0  0  0  0  0  0  0  0
    7.2305   -0.6898   20.7785 N   0  0  0  0  0  0  0  0  0  0  0  0
    8.6625    1.0133   24.4989 N   0  0  0  0  0  0  0  0  0  0  0  0
   10.3258    0.7392   26.1062 O   0  0  0  0  0  0  0  0  0  0  0  0
    8.7591    1.0930   21.1277 O   0  0  0  0  0  0  0  0  0  0  0  0
   13.4288   -2.1465   21.1124 Cl  0  0  0  0  0  0  0  0  0  0  0  0
    2.5443    3.3508   20.6368 H   0  0  0  0  0  0  0  0  0  0  0  0
    3.5189    2.1137   22.5166 H   0  0  0  0  0  0  0  0  0  0  0  0
    3.3421    2.9744   18.3363 H   0  0  0  0  0  0  0  0  0  0  0  0
    5.3131    0.4893   22.1569 H   0  0  0  0  0  0  0  0  0  0  0  0
   12.5188    0.5961   24.9710 H   0  0  0  0  0  0  0  0  0  0  0  0
   13.9920   -0.5226   23.3817 H   0  0  0  0  0  0  0  0  0  0  0  0
   10.6143   -2.0253   21.2266 H   0  0  0  0  0  0  0  0  0  0  0  0
    4.9151    1.7511   16.7471 H   0  0  0  0  0  0  0  0  0  0  0  0
    7.6455   -0.9765   18.1038 H   0  0  0  0  0  0  0  0  0  0  0  0
    7.5127   -2.5277   23.3386 H   0  0  0  0  0  0  0  0  0  0  0  0
    8.7593   -2.9102   22.1430 H   0  0  0  0  0  0  0  0  0  0  0  0
    7.0601   -2.7254   20.5715 H   0  0  0  0  0  0  0  0  0  0  0  0
    5.9526   -1.9963   21.7706 H   0  0  0  0  0  0  0  0  0  0  0  0
    6.9217    0.3181   23.5732 H   0  0  0  0  0  0  0  0  0  0  0  0
    7.6678   -0.8543   24.6617 H   0  0  0  0  0  0  0  0  0  0  0  0
    7.4487    2.4774   23.9374 H   0  0  0  0  0  0  0  0  0  0  0  0
    8.8782    2.9635   24.8685 H   0  0  0  0  0  0  0  0  0  0  0  0
  1 23  1  0  0  0  0
  1 24  3  0  0  0  0
  2  3  2  0  0  0  0
  2  4  1  0  0  0  0
  3  5  1  0  0  0  0
  4 11  2  0  0  0  0
  5 12  2  0  0  0  0
  6  7  2  0  0  0  0
  6 13  1  0  0  0  0
  7 16  1  0  0  0  0
  8 14  1  0  0  0  0
  8 16  2  0  0  0  0
  9 11  1  0  0  0  0
  9 25  2  0  0  0  0
 10 15  2  0  0  0  0
 10 25  1  0  0  0  0
 11 12  1  0  0  0  0
 12 15  1  0  0  0  0
 13 14  2  0  0  0  0
 13 17  1  0  0  0  0
 14 22  1  6  0  0  0
 15 26  1  0  0  0  0
 16 30  1  0  0  0  0
 17 27  1  0  0  0  0
 17 28  2  0  0  0  0
 18 22  1  1  0  0  0
 18 26  1  0  0  0  0
 18 29  2  0  0  0  0
 19 20  1  0  0  0  0
 19 22  1  1  0  0  0
 20 26  1  0  0  0  0
 21 22  1  6  0  0  0
 21 27  1  0  0  0  0
 23 27  1  0  0  0  0
  2 31  1  0  0  0  0
  3 32  1  0  0  0  0
  4 33  1  0  0  0  0
  5 34  1  0  0  0  0
  6 35  1  0  0  0  0
  7 36  1  0  0  0  0
  8 37  1  0  0  0  0
  9 38  1  0  0  0  0
 10 39  1  0  0  0  0
 19 40  1  0  0  0  0
 19 41  1  0  0  0  0
 20 42  1  0  0  0  0
 20 43  1  0  0  0  0
 21 44  1  0  0  0  0
 21 45  1  0  0  0  0
 23 46  1  0  0  0  0
 23 47  1  0  0  0  0
M  END
> <scaffold>
tetrahydroisoquinoline-5spiro-isoquinoline

> <compound>
PET-UNK-aa57768f-2

> <compound_smiles>
c1ccc2c(c1)cncc2N3CC[C@@]4(C3=O)CN(C(=O)c5c4cc(cc5)Cl)CC#N

> <enantiomer_smiles>
c1ccc2c(c1)cncc2N3CC[C@@]4(C3=O)CN(C(=O)c5c4cc(cc5)Cl)CC#N

> <clash_score>
0

> <docking_score>
3.4028234663852886e+38

> <overlap_score>
1.0

> <MMFF_internal_energy>
158.30003349242816

> <docked_smiles>
c1ccc2c(c1)cncc2N3CC[C@@]4(C3=O)CN(C(=O)c5c4cc(cc5)Cl)CC#N

$$$$
PET-UNK-aa57768f-8_1
  -OEChem-01042202303D

 47 51  0     1  0  0  0  0  0999 V2000
    7.3060    2.1390   26.0232 C   0  0  0  0  0  0  0  0  0  0  0  0
    3.3444    2.6278   20.4409 C   0  0  0  0  0  0  0  0  0  0  0  0
    3.8974    1.9290   21.5048 C   0  0  0  0  0  0  0  0  0  0  0  0
    3.7877    2.4205   19.1658 C   0  0  0  0  0  0  0  0  0  0  0  0
    4.8986    1.0232   21.2985 C   0  0  0  0  0  0  0  0  0  0  0  0
   12.0781    0.0316   24.1532 C   0  0  0  0  0  0  0  0  0  0  0  0
   12.9147   -0.6032   23.2559 C   0  0  0  0  0  0  0  0  0  0  0  0
   11.0005   -1.4332   22.0435 C   0  0  0  0  0  0  0  0  0  0  0  0
    5.3288    1.2339   17.6062 C   0  0  0  0  0  0  0  0  0  0  0  0
    6.8449   -0.2893   18.3747 C   0  0  0  0  0  0  0  0  0  0  0  0
    4.8238    1.4906   18.9051 C   0  0  0  0  0  0  0  0  0  0  0  0
    5.3995    0.7732   19.9944 C   0  0  0  0  0  0  0  0  0  0  0  0
   10.7056   -0.0626   23.9890 C   0  0  0  0  0  0  0  0  0  0  0  0
   10.1421   -0.7766   22.9242 C   0  0  0  0  0  0  0  0  0  0  0  0
    6.4452   -0.1472   19.6975 C   0  0  0  0  0  0  0  0  0  0  0  0
   12.3697   -1.3298   22.2224 C   0  0  0  0  0  0  0  0  0  0  0  0
    9.9496    0.5589   24.9527 C   0  0  0  0  0  0  0  0  0  0  0  0
    8.2504    0.0168   21.4265 C   0  0  0  0  0  0  0  0  0  0  0  0
    8.0155   -2.1541   22.4325 C   0  0  0  0  0  0  0  0  0  0  0  0
    6.9880   -1.9367   21.3575 C   0  0  0  0  0  0  0  0  0  0  0  0
    7.8737   -0.1194   23.8825 C   0  0  0  0  0  0  0  0  0  0  0  0
    8.6253   -0.7606   22.6923 C   0  0  3  0  0  0  0  0  0  0  0  0
    8.0842    2.2156   24.7882 C   0  0  0  0  0  0  0  0  0  0  0  0
    6.6877    2.0818   27.0034 N   0  0  0  0  0  0  0  0  0  0  0  0
    6.3072    0.3768   17.3417 N   0  0  0  0  0  0  0  0  0  0  0  0
    7.2305   -0.6898   20.7785 N   0  0  0  0  0  0  0  0  0  0  0  0
    8.6625    1.0133   24.4989 N   0  0  0  0  0  0  0  0  0  0  0  0
   10.3258    0.7392   26.1062 O   0  0  0  0  0  0  0  0  0  0  0  0
    8.7591    1.0930   21.1277 O   0  0  0  0  0  0  0  0  0  0  0  0
   13.4288   -2.1465   21.1124 Cl  0  0  0  0  0  0  0  0  0  0  0  0
    2.5443    3.3508   20.6368 H   0  0  0  0  0  0  0  0  0  0  0  0
    3.5189    2.1137   22.5166 H   0  0  0  0  0  0  0  0  0  0  0  0
    3.3421    2.9744   18.3363 H   0  0  0  0  0  0  0  0  0  0  0  0
    5.3131    0.4893   22.1569 H   0  0  0  0  0  0  0  0  0  0  0  0
   12.5188    0.5961   24.9710 H   0  0  0  0  0  0  0  0  0  0  0  0
   13.9920   -0.5226   23.3817 H   0  0  0  0  0  0  0  0  0  0  0  0
   10.6143   -2.0253   21.2266 H   0  0  0  0  0  0  0  0  0  0  0  0
    4.9151    1.7511   16.7471 H   0  0  0  0  0  0  0  0  0  0  0  0
    7.6455   -0.9765   18.1038 H   0  0  0  0  0  0  0  0  0  0  0  0
    7.5127   -2.5277   23.3386 H   0  0  0  0  0  0  0  0  0  0  0  0
    8.7593   -2.9102   22.1430 H   0  0  0  0  0  0  0  0  0  0  0  0
    7.0601   -2.7254   20.5715 H   0  0  0  0  0  0  0  0  0  0  0  0
    5.9526   -1.9963   21.7706 H   0  0  0  0  0  0  0  0  0  0  0  0
    6.9217    0.3181   23.5732 H   0  0  0  0  0  0  0  0  0  0  0  0
    7.6678   -0.8543   24.6617 H   0  0  0  0  0  0  0  0  0  0  0  0
    7.4487    2.4774   23.9374 H   0  0  0  0  0  0  0  0  0  0  0  0
    8.8782    2.9635   24.8685 H   0  0  0  0  0  0  0  0  0  0  0  0
  1 23  1  0  0  0  0
  1 24  3  0  0  0  0
  2  3  2  0  0  0  0
  2  4  1  0  0  0  0
  3  5  1  0  0  0  0
  4 11  2  0  0  0  0
  5 12  2  0  0  0  0
  6  7  2  0  0  0  0
  6 13  1  0  0  0  0
  7 16  1  0  0  0  0
  8 14  1  0  0  0  0
  8 16  2  0  0  0  0
  9 11  1  0  0  0  0
  9 25  2  0  0  0  0
 10 15  2  0  0  0  0
 10 25  1  0  0  0  0
 11 12  1  0  0  0  0
 12 15  1  0  0  0  0
 13 14  2  0  0  0  0
 13 17  1  0  0  0  0
 14 22  1  0  0  0  0
 15 26  1  0  0  0  0
 16 30  1  0  0  0  0
 17 27  1  0  0  0  0
 17 28  2  0  0  0  0
 18 22  1  0  0  0  0
 18 26  1  0  0  0  0
 18 29  2  0  0  0  0
 19 20  1  0  0  0  0
 19 22  1  0  0  0  0
 20 26  1  0  0  0  0
 21 22  1  0  0  0  0
 21 27  1  0  0  0  0
 23 27  1  0  0  0  0
  2 31  1  0  0  0  0
  3 32  1  0  0  0  0
  4 33  1  0  0  0  0
  5 34  1  0  0  0  0
  6 35  1  0  0  0  0
  7 36  1  0  0  0  0
  8 37  1  0  0  0  0
  9 38  1  0  0  0  0
 10 39  1  0  0  0  0
 19 40  1  0  0  0  0
 19 41  1  0  0  0  0
 20 42  1  0  0  0  0
 20 43  1  0  0  0  0
 21 44  1  0  0  0  0
 21 45  1  0  0  0  0
 23 46  1  0  0  0  0
 23 47  1  0  0  0  0
M  END
> <scaffold>
tetrahydroisoquinoline-5spiro-isoquinoline

> <compound>
PET-UNK-aa57768f-8

> <compound_smiles>
c1ccc2c(c1)cncc2N3CCC4(C3=O)CN(C(=O)c5c4cc(cc5)Cl)CC#N

> <enantiomer_smiles>
c1ccc2c(c1)cncc2N3CC[C@@]4(C3=O)CN(C(=O)c5c4cc(cc5)Cl)CC#N

> <clash_score>
0

> <docking_score>
3.4028234663852886e+38

> <overlap_score>
1.0

> <MMFF_internal_energy>
158.30003349242816

> <docked_smiles>
c1ccc2c(c1)cncc2N3CC[C@@]4(C3=O)CN(C(=O)c5c4cc(cc5)Cl)CC#N

$$$$
EDJ-MED-f9b78f78-4_1
  -OEChem-01042202303D

 44 48  0     1  0  0  0  0  0999 V2000
    3.3444    2.6278   20.4409 C   0  0  0  0  0  0  0  0  0  0  0  0
    3.8974    1.9290   21.5048 C   0  0  0  0  0  0  0  0  0  0  0  0
    3.7877    2.4205   19.1658 C   0  0  0  0  0  0  0  0  0  0  0  0
    4.8986    1.0232   21.2985 C   0  0  0  0  0  0  0  0  0  0  0  0
   12.0781    0.0316   24.1532 C   0  0  0  0  0  0  0  0  0  0  0  0
   12.9147   -0.6032   23.2559 C   0  0  0  0  0  0  0  0  0  0  0  0
   11.0005   -1.4332   22.0435 C   0  0  0  0  0  0  0  0  0  0  0  0
    5.3288    1.2339   17.6062 C   0  0  0  0  0  0  0  0  0  0  0  0
    6.8449   -0.2893   18.3747 C   0  0  0  0  0  0  0  0  0  0  0  0
    4.8238    1.4906   18.9051 C   0  0  0  0  0  0  0  0  0  0  0  0
    5.3995    0.7732   19.9944 C   0  0  0  0  0  0  0  0  0  0  0  0
   10.1421   -0.7766   22.9242 C   0  0  0  0  0  0  0  0  0  0  0  0
    6.4452   -0.1472   19.6975 C   0  0  0  0  0  0  0  0  0  0  0  0
   10.7056   -0.0626   23.9890 C   0  0  0  0  0  0  0  0  0  0  0  0
   12.3697   -1.3298   22.2224 C   0  0  0  0  0  0  0  0  0  0  0  0
    8.2504    0.0168   21.4265 C   0  0  0  0  0  0  0  0  0  0  0  0
    8.0155   -2.1541   22.4325 C   0  0  0  0  0  0  0  0  0  0  0  0
    6.9880   -1.9367   21.3575 C   0  0  0  0  0  0  0  0  0  0  0  0
    7.8737   -0.1194   23.8825 C   0  0  0  0  0  0  0  0  0  0  0  0
    8.6253   -0.7606   22.6923 C   0  0  3  0  0  0  0  0  0  0  0  0
    6.3072    0.3768   17.3417 N   0  0  0  0  0  0  0  0  0  0  0  0
    8.6625    1.0133   24.4989 N   0  0  0  0  0  0  0  0  0  0  0  0
    7.2305   -0.6898   20.7785 N   0  0  0  0  0  0  0  0  0  0  0  0
    8.8304    1.0394   21.0779 O   0  0  0  0  0  0  0  0  0  0  0  0
    9.7279   -0.4360   26.1442 O   0  0  0  0  0  0  0  0  0  0  0  0
   10.7109    1.8102   25.5179 O   0  0  0  0  0  0  0  0  0  0  0  0
    9.9496    0.5589   24.9527 S   0  0  0  0  0  0  0  0  0  0  0  0
   13.4300   -2.1361   21.1054 Cl  0  0  0  0  0  0  0  0  0  0  0  0
    2.5443    3.3508   20.6368 H   0  0  0  0  0  0  0  0  0  0  0  0
    3.5189    2.1137   22.5166 H   0  0  0  0  0  0  0  0  0  0  0  0
    3.3421    2.9744   18.3363 H   0  0  0  0  0  0  0  0  0  0  0  0
    5.3131    0.4893   22.1569 H   0  0  0  0  0  0  0  0  0  0  0  0
   12.5130    0.5940   24.9769 H   0  0  0  0  0  0  0  0  0  0  0  0
   13.9928   -0.5158   23.3774 H   0  0  0  0  0  0  0  0  0  0  0  0
   10.6109   -2.0131   21.2228 H   0  0  0  0  0  0  0  0  0  0  0  0
    4.9151    1.7511   16.7471 H   0  0  0  0  0  0  0  0  0  0  0  0
    7.6455   -0.9765   18.1038 H   0  0  0  0  0  0  0  0  0  0  0  0
    7.5152   -2.5498   23.3301 H   0  0  0  0  0  0  0  0  0  0  0  0
    8.7636   -2.9047   22.1422 H   0  0  0  0  0  0  0  0  0  0  0  0
    7.0605   -2.7247   20.5713 H   0  0  0  0  0  0  0  0  0  0  0  0
    5.9528   -1.9968   21.7703 H   0  0  0  0  0  0  0  0  0  0  0  0
    6.8923    0.2870   23.5893 H   0  0  0  0  0  0  0  0  0  0  0  0
    7.6604   -0.8568   24.6751 H   0  0  0  0  0  0  0  0  0  0  0  0
    8.4453    1.9139   24.0242 H   0  0  0  0  0  0  0  0  0  0  0  0
  1  2  2  0  0  0  0
  1  3  1  0  0  0  0
  2  4  1  0  0  0  0
  3 10  2  0  0  0  0
  4 11  2  0  0  0  0
  5  6  2  0  0  0  0
  5 14  1  0  0  0  0
  6 15  1  0  0  0  0
  7 12  1  0  0  0  0
  7 15  2  0  0  0  0
  8 10  1  0  0  0  0
  8 21  2  0  0  0  0
  9 13  2  0  0  0  0
  9 21  1  0  0  0  0
 10 11  1  0  0  0  0
 11 13  1  0  0  0  0
 12 14  2  0  0  0  0
 12 20  1  0  0  0  0
 13 23  1  0  0  0  0
 14 27  1  0  0  0  0
 15 28  1  0  0  0  0
 16 20  1  0  0  0  0
 16 23  1  0  0  0  0
 16 24  2  0  0  0  0
 17 18  1  0  0  0  0
 17 20  1  0  0  0  0
 18 23  1  0  0  0  0
 19 20  1  0  0  0  0
 19 22  1  0  0  0  0
 22 27  1  0  0  0  0
 25 27  2  0  0  0  0
 26 27  2  0  0  0  0
  1 29  1  0  0  0  0
  2 30  1  0  0  0  0
  3 31  1  0  0  0  0
  4 32  1  0  0  0  0
  5 33  1  0  0  0  0
  6 34  1  0  0  0  0
  7 35  1  0  0  0  0
  8 36  1  0  0  0  0
  9 37  1  0  0  0  0
 17 38  1  0  0  0  0
 17 39  1  0  0  0  0
 18 40  1  0  0  0  0
 18 41  1  0  0  0  0
 19 42  1  0  0  0  0
 19 43  1  0  0  0  0
 22 44  1  0  0  0  0
M  END
> <scaffold>
tetralinlike-5spiro-isoquinoline

> <compound>
EDJ-MED-f9b78f78-4

> <compound_smiles>
c1ccc2c(c1)cncc2N3CCC4(C3=O)CNS(=O)(=O)c5c4cc(cc5)Cl

> <enantiomer_smiles>
c1ccc2c(c1)cncc2N3CC[C@]4(C3=O)CNS(=O)(=O)c5c4cc(cc5)Cl

> <clash_score>
0.7237397372916018

> <docking_score>
3.4028234663852886e+38

> <overlap_score>
0.9897217750549316

> <MMFF_internal_energy>
217.43698544128688

> <docked_smiles>
c1ccc2c(c1)cncc2N3CC[C@]4(C3=O)CNS(=O)(=O)c5c4cc(cc5)Cl

$$$$
EDJ-MED-94fddcec-4_1
  -OEChem-01042202303D

 45 49  0     1  0  0  0  0  0999 V2000
    3.3444    2.6278   20.4409 C   0  0  0  0  0  0  0  0  0  0  0  0
    3.8974    1.9290   21.5048 C   0  0  0  0  0  0  0  0  0  0  0  0
    3.7877    2.4205   19.1658 C   0  0  0  0  0  0  0  0  0  0  0  0
    4.8986    1.0232   21.2985 C   0  0  0  0  0  0  0  0  0  0  0  0
   12.0781    0.0316   24.1532 C   0  0  0  0  0  0  0  0  0  0  0  0
   12.9147   -0.6032   23.2559 C   0  0  0  0  0  0  0  0  0  0  0  0
   11.0005   -1.4332   22.0435 C   0  0  0  0  0  0  0  0  0  0  0  0
    5.3288    1.2339   17.6062 C   0  0  0  0  0  0  0  0  0  0  0  0
    6.8449   -0.2893   18.3747 C   0  0  0  0  0  0  0  0  0  0  0  0
    4.8238    1.4906   18.9051 C   0  0  0  0  0  0  0  0  0  0  0  0
    5.3995    0.7732   19.9944 C   0  0  0  0  0  0  0  0  0  0  0  0
   10.1421   -0.7766   22.9242 C   0  0  0  0  0  0  0  0  0  0  0  0
    6.4452   -0.1472   19.6975 C   0  0  0  0  0  0  0  0  0  0  0  0
   10.7056   -0.0626   23.9890 C   0  0  0  0  0  0  0  0  0  0  0  0
   12.3697   -1.3298   22.2224 C   0  0  0  0  0  0  0  0  0  0  0  0
    8.2504    0.0168   21.4265 C   0  0  0  0  0  0  0  0  0  0  0  0
    8.0155   -2.1541   22.4325 C   0  0  0  0  0  0  0  0  0  0  0  0
    7.8737   -0.1194   23.8825 C   0  0  0  0  0  0  0  0  0  0  0  0
    6.9880   -1.9367   21.3575 C   0  0  0  0  0  0  0  0  0  0  0  0
    8.6625    1.0133   24.4989 C   0  0  0  0  0  0  0  0  0  0  0  0
    8.6253   -0.7606   22.6923 C   0  0  3  0  0  0  0  0  0  0  0  0
    6.3072    0.3768   17.3417 N   0  0  0  0  0  0  0  0  0  0  0  0
    7.2305   -0.6898   20.7785 N   0  0  0  0  0  0  0  0  0  0  0  0
    8.7566    1.0941   21.1311 O   0  0  0  0  0  0  0  0  0  0  0  0
    9.7120   -0.4300   26.1378 O   0  0  0  0  0  0  0  0  0  0  0  0
   10.7467    1.7884   25.4917 O   0  0  0  0  0  0  0  0  0  0  0  0
    9.9496    0.5589   24.9527 S   0  0  0  0  0  0  0  0  0  0  0  0
   13.4302   -2.1437   21.1108 Cl  0  0  0  0  0  0  0  0  0  0  0  0
    2.5443    3.3508   20.6368 H   0  0  0  0  0  0  0  0  0  0  0  0
    3.5189    2.1137   22.5166 H   0  0  0  0  0  0  0  0  0  0  0  0
    3.3421    2.9744   18.3363 H   0  0  0  0  0  0  0  0  0  0  0  0
    5.3131    0.4893   22.1569 H   0  0  0  0  0  0  0  0  0  0  0  0
   12.5141    0.5961   24.9741 H   0  0  0  0  0  0  0  0  0  0  0  0
   13.9930   -0.5214   23.3817 H   0  0  0  0  0  0  0  0  0  0  0  0
   10.6120   -2.0228   21.2300 H   0  0  0  0  0  0  0  0  0  0  0  0
    4.9151    1.7511   16.7471 H   0  0  0  0  0  0  0  0  0  0  0  0
    7.6455   -0.9765   18.1038 H   0  0  0  0  0  0  0  0  0  0  0  0
    7.5792   -2.6139   23.3283 H   0  0  0  0  0  0  0  0  0  0  0  0
    8.7727   -2.8629   22.0635 H   0  0  0  0  0  0  0  0  0  0  0  0
    7.6629   -0.8655   24.6523 H   0  0  0  0  0  0  0  0  0  0  0  0
    6.9026    0.2573   23.5461 H   0  0  0  0  0  0  0  0  0  0  0  0
    7.0247   -2.7501   20.5941 H   0  0  0  0  0  0  0  0  0  0  0  0
    5.9565   -1.9488   21.7820 H   0  0  0  0  0  0  0  0  0  0  0  0
    8.7048    1.8247   23.7053 H   0  0  0  0  0  0  0  0  0  0  0  0
    8.0006    1.4860   25.2925 H   0  0  0  0  0  0  0  0  0  0  0  0
  1  2  2  0  0  0  0
  1  3  1  0  0  0  0
  2  4  1  0  0  0  0
  3 10  2  0  0  0  0
  4 11  2  0  0  0  0
  5  6  2  0  0  0  0
  5 14  1  0  0  0  0
  6 15  1  0  0  0  0
  7 12  1  0  0  0  0
  7 15  2  0  0  0  0
  8 10  1  0  0  0  0
  8 22  2  0  0  0  0
  9 13  2  0  0  0  0
  9 22  1  0  0  0  0
 10 11  1  0  0  0  0
 11 13  1  0  0  0  0
 12 14  2  0  0  0  0
 12 21  1  0  0  0  0
 13 23  1  0  0  0  0
 14 27  1  0  0  0  0
 15 28  1  0  0  0  0
 16 21  1  0  0  0  0
 16 23  1  0  0  0  0
 16 24  2  0  0  0  0
 17 19  1  0  0  0  0
 17 21  1  0  0  0  0
 18 20  1  0  0  0  0
 18 21  1  0  0  0  0
 19 23  1  0  0  0  0
 20 27  1  0  0  0  0
 25 27  2  0  0  0  0
 26 27  2  0  0  0  0
  1 29  1  0  0  0  0
  2 30  1  0  0  0  0
  3 31  1  0  0  0  0
  4 32  1  0  0  0  0
  5 33  1  0  0  0  0
  6 34  1  0  0  0  0
  7 35  1  0  0  0  0
  8 36  1  0  0  0  0
  9 37  1  0  0  0  0
 17 38  1  0  0  0  0
 17 39  1  0  0  0  0
 18 40  1  0  0  0  0
 18 41  1  0  0  0  0
 19 42  1  0  0  0  0
 19 43  1  0  0  0  0
 20 44  1  0  0  0  0
 20 45  1  0  0  0  0
M  END
> <scaffold>
tetralinlike-5spiro-isoquinoline

> <compound>
EDJ-MED-94fddcec-4

> <compound_smiles>
c1ccc2c(c1)cncc2N3CCC4(C3=O)CCS(=O)(=O)c5c4cc(cc5)Cl

> <enantiomer_smiles>
c1ccc2c(c1)cncc2N3CC[C@@]4(C3=O)CCS(=O)(=O)c5c4cc(cc5)Cl

> <clash_score>
0.7168183810318016

> <docking_score>
3.4028234663852886e+38

> <overlap_score>
0.9900269508361816

> <MMFF_internal_energy>
296.52317145667587

> <docked_smiles>
c1ccc2c(c1)cncc2N3CC[C@@]4(C3=O)CCS(=O)(=O)c5c4cc(cc5)Cl

$$$$
VLA-MRT-a639d434-3_1
  -OEChem-01042202303D

 43 47  0     1  0  0  0  0  0999 V2000
    3.3444    2.6278   20.4409 C   0  0  0  0  0  0  0  0  0  0  0  0
    3.8974    1.9290   21.5048 C   0  0  0  0  0  0  0  0  0  0  0  0
    3.7877    2.4205   19.1658 C   0  0  0  0  0  0  0  0  0  0  0  0
    4.8986    1.0232   21.2985 C   0  0  0  0  0  0  0  0  0  0  0  0
   12.0781    0.0316   24.1532 C   0  0  0  0  0  0  0  0  0  0  0  0
   12.9147   -0.6032   23.2559 C   0  0  0  0  0  0  0  0  0  0  0  0
   11.0005   -1.4332   22.0435 C   0  0  0  0  0  0  0  0  0  0  0  0
    5.3288    1.2339   17.6062 C   0  0  0  0  0  0  0  0  0  0  0  0
    6.8449   -0.2893   18.3747 C   0  0  0  0  0  0  0  0  0  0  0  0
    4.8238    1.4906   18.9051 C   0  0  0  0  0  0  0  0  0  0  0  0
    5.3995    0.7732   19.9944 C   0  0  0  0  0  0  0  0  0  0  0  0
   10.7056   -0.0626   23.9890 C   0  0  0  0  0  0  0  0  0  0  0  0
   10.1421   -0.7766   22.9242 C   0  0  0  0  0  0  0  0  0  0  0  0
    6.4452   -0.1472   19.6975 C   0  0  0  0  0  0  0  0  0  0  0  0
   12.3697   -1.3298   22.2224 C   0  0  0  0  0  0  0  0  0  0  0  0
    8.2504    0.0168   21.4265 C   0  0  0  0  0  0  0  0  0  0  0  0
    6.9880   -1.9367   21.3575 C   0  0  0  0  0  0  0  0  0  0  0  0
    9.9496    0.5589   24.9527 C   0  0  0  0  0  0  0  0  0  0  0  0
    7.8737   -0.1194   23.8825 C   0  0  0  0  0  0  0  0  0  0  0  0
    8.6253   -0.7606   22.6923 C   0  0  2  0  0  0  0  0  0  0  0  0
    6.3072    0.3768   17.3417 N   0  0  0  0  0  0  0  0  0  0  0  0
    8.0155   -2.1541   22.4325 N   0  0  0  0  0  0  0  0  0  0  0  0
    7.2305   -0.6898   20.7785 N   0  0  0  0  0  0  0  0  0  0  0  0
    8.6625    1.0133   24.4989 N   0  3  0  0  0  0  0  0  0  0  0  0
    8.8047    1.0449   21.0950 O   0  0  0  0  0  0  0  0  0  0  0  0
    6.1339   -2.7708   21.1541 O   0  0  0  0  0  0  0  0  0  0  0  0
   13.4294   -2.1415   21.1090 Cl  0  0  0  0  0  0  0  0  0  0  0  0
    2.5443    3.3508   20.6368 H   0  0  0  0  0  0  0  0  0  0  0  0
    3.5189    2.1137   22.5166 H   0  0  0  0  0  0  0  0  0  0  0  0
    3.3421    2.9744   18.3363 H   0  0  0  0  0  0  0  0  0  0  0  0
    5.3131    0.4893   22.1569 H   0  0  0  0  0  0  0  0  0  0  0  0
   12.5034    0.5981   24.9742 H   0  0  0  0  0  0  0  0  0  0  0  0
   13.9924   -0.5181   23.3789 H   0  0  0  0  0  0  0  0  0  0  0  0
   10.6069   -2.0191   21.2241 H   0  0  0  0  0  0  0  0  0  0  0  0
    4.9151    1.7511   16.7471 H   0  0  0  0  0  0  0  0  0  0  0  0
    7.6455   -0.9765   18.1038 H   0  0  0  0  0  0  0  0  0  0  0  0
    9.7460   -0.1129   25.8257 H   0  0  0  0  0  0  0  0  0  0  0  0
   10.4432    1.4701   25.3773 H   0  0  0  0  0  0  0  0  0  0  0  0
    6.9045    0.3148   23.5859 H   0  0  0  0  0  0  0  0  0  0  0  0
    7.6906   -0.8406   24.6974 H   0  0  0  0  0  0  0  0  0  0  0  0
    8.2145   -2.9428   22.8498 H   0  0  0  0  0  0  0  0  0  0  0  0
    8.1129    1.4091   25.2719 H   0  0  0  0  0  0  0  0  0  0  0  0
    8.7497    1.7641   23.8017 H   0  0  0  0  0  0  0  0  0  0  0  0
  1  2  2  0  0  0  0
  1  3  1  0  0  0  0
  2  4  1  0  0  0  0
  3 10  2  0  0  0  0
  4 11  2  0  0  0  0
  5  6  2  0  0  0  0
  5 12  1  0  0  0  0
  6 15  1  0  0  0  0
  7 13  1  0  0  0  0
  7 15  2  0  0  0  0
  8 10  1  0  0  0  0
  8 21  2  0  0  0  0
  9 14  2  0  0  0  0
  9 21  1  0  0  0  0
 10 11  1  0  0  0  0
 11 14  1  0  0  0  0
 12 13  2  0  0  0  0
 12 18  1  0  0  0  0
 13 20  1  6  0  0  0
 14 23  1  0  0  0  0
 15 27  1  0  0  0  0
 16 20  1  1  0  0  0
 16 23  1  0  0  0  0
 16 25  2  0  0  0  0
 17 22  1  0  0  0  0
 17 23  1  0  0  0  0
 17 26  2  0  0  0  0
 18 24  1  0  0  0  0
 19 20  1  1  0  0  0
 19 24  1  0  0  0  0
 20 22  1  6  0  0  0
  1 28  1  0  0  0  0
  2 29  1  0  0  0  0
  3 30  1  0  0  0  0
  4 31  1  0  0  0  0
  5 32  1  0  0  0  0
  6 33  1  0  0  0  0
  7 34  1  0  0  0  0
  8 35  1  0  0  0  0
  9 36  1  0  0  0  0
 18 37  1  0  0  0  0
 18 38  1  0  0  0  0
 19 39  1  0  0  0  0
 19 40  1  0  0  0  0
 22 41  1  0  0  0  0
 24 42  1  0  0  0  0
 24 43  1  0  0  0  0
M  CHG  1  24   1
M  END
> <scaffold>
tetrahydroisoquinoline-5spiro-isoquinoline

> <compound>
VLA-MRT-a639d434-3

> <compound_smiles>
c1ccc2c(c1)cncc2N3C(=O)[C@@]4(CNCc5c4cc(cc5)Cl)NC3=O

> <enantiomer_smiles>
c1ccc2c(c1)cncc2N3C(=O)[C@@]4(CNCc5c4cc(cc5)Cl)NC3=O

> <clash_score>
0

> <docking_score>
3.4028234663852886e+38

> <overlap_score>
1.0

> <MMFF_internal_energy>
133.04824940842937

> <docked_smiles>
c1ccc2c(c1)cncc2N3C(=O)[C@@]4(C[NH2+]Cc5c4cc(cc5)Cl)NC3=O

$$$$
EDJ-MED-7587a9ee-3_1
  -OEChem-01042202303D

 50 54  0     1  0  0  0  0  0999 V2000
    3.3444    2.6278   20.4409 C   0  0  0  0  0  0  0  0  0  0  0  0
    3.8974    1.9290   21.5048 C   0  0  0  0  0  0  0  0  0  0  0  0
    3.7877    2.4205   19.1658 C   0  0  0  0  0  0  0  0  0  0  0  0
    4.8986    1.0232   21.2985 C   0  0  0  0  0  0  0  0  0  0  0  0
   12.0781    0.0316   24.1532 C   0  0  0  0  0  0  0  0  0  0  0  0
   12.9147   -0.6032   23.2559 C   0  0  0  0  0  0  0  0  0  0  0  0
   11.0005   -1.4332   22.0435 C   0  0  0  0  0  0  0  0  0  0  0  0
    5.3288    1.2339   17.6062 C   0  0  0  0  0  0  0  0  0  0  0  0
    6.8449   -0.2893   18.3747 C   0  0  0  0  0  0  0  0  0  0  0  0
    4.8238    1.4906   18.9051 C   0  0  0  0  0  0  0  0  0  0  0  0
    5.3995    0.7732   19.9944 C   0  0  0  0  0  0  0  0  0  0  0  0
   10.7056   -0.0626   23.9890 C   0  0  0  0  0  0  0  0  0  0  0  0
   10.1421   -0.7766   22.9242 C   0  0  0  0  0  0  0  0  0  0  0  0
    6.4452   -0.1472   19.6975 C   0  0  0  0  0  0  0  0  0  0  0  0
   12.3697   -1.3298   22.2224 C   0  0  0  0  0  0  0  0  0  0  0  0
    8.2504    0.0168   21.4265 C   0  0  0  0  0  0  0  0  0  0  0  0
    9.9496    0.5589   24.9527 C   0  0  0  0  0  0  0  0  0  0  0  0
    8.0155   -2.1541   22.4325 C   0  0  0  0  0  0  0  0  0  0  0  0
    6.9880   -1.9367   21.3575 C   0  0  0  0  0  0  0  0  0  0  0  0
    7.8737   -0.1194   23.8825 C   0  0  0  0  0  0  0  0  0  0  0  0
    8.6253   -0.7606   22.6923 C   0  0  3  0  0  0  0  0  0  0  0  0
    7.6088    0.9304   26.9546 C   0  0  0  0  0  0  0  0  0  0  0  0
    6.3072    0.3768   17.3417 N   0  0  0  0  0  0  0  0  0  0  0  0
    7.2305   -0.6898   20.7785 N   0  0  0  0  0  0  0  0  0  0  0  0
    8.6625    1.0133   24.4989 N   0  0  3  0  0  0  0  0  0  0  0  0
    8.8314    1.0394   21.0790 O   0  0  0  0  0  0  0  0  0  0  0  0
    6.4559    2.2241   24.9990 O   0  0  0  0  0  0  0  0  0  0  0  0
    8.6119    3.1278   25.9583 O   0  0  0  0  0  0  0  0  0  0  0  0
    7.7725    2.0180   25.5623 S   0  0  0  0  0  0  0  0  0  0  0  0
   13.4285   -2.1410   21.1076 Cl  0  0  0  0  0  0  0  0  0  0  0  0
    2.5443    3.3508   20.6368 H   0  0  0  0  0  0  0  0  0  0  0  0
    3.5189    2.1137   22.5166 H   0  0  0  0  0  0  0  0  0  0  0  0
    3.3421    2.9744   18.3363 H   0  0  0  0  0  0  0  0  0  0  0  0
    5.3131    0.4893   22.1569 H   0  0  0  0  0  0  0  0  0  0  0  0
   12.5038    0.5986   24.9731 H   0  0  0  0  0  0  0  0  0  0  0  0
   13.9925   -0.5165   23.3773 H   0  0  0  0  0  0  0  0  0  0  0  0
   10.6052   -2.0169   21.2237 H   0  0  0  0  0  0  0  0  0  0  0  0
    4.9151    1.7511   16.7471 H   0  0  0  0  0  0  0  0  0  0  0  0
    7.6455   -0.9765   18.1038 H   0  0  0  0  0  0  0  0  0  0  0  0
    9.7866   -0.1187   25.8304 H   0  0  0  0  0  0  0  0  0  0  0  0
   10.4816    1.4567   25.3600 H   0  0  0  0  0  0  0  0  0  0  0  0
    7.5167   -2.5459   23.3332 H   0  0  0  0  0  0  0  0  0  0  0  0
    8.7666   -2.9029   22.1426 H   0  0  0  0  0  0  0  0  0  0  0  0
    7.0601   -2.7250   20.5715 H   0  0  0  0  0  0  0  0  0  0  0  0
    5.9530   -1.9963   21.7709 H   0  0  0  0  0  0  0  0  0  0  0  0
    6.8882    0.2643   23.5640 H   0  0  0  0  0  0  0  0  0  0  0  0
    7.6667   -0.8657   24.6729 H   0  0  0  0  0  0  0  0  0  0  0  0
    7.0455    1.4488   27.7322 H   0  0  0  0  0  0  0  0  0  0  0  0
    7.0776    0.0341   26.6308 H   0  0  0  0  0  0  0  0  0  0  0  0
    8.6077    0.6753   27.3116 H   0  0  0  0  0  0  0  0  0  0  0  0
  1  2  2  0  0  0  0
  1  3  1  0  0  0  0
  2  4  1  0  0  0  0
  3 10  2  0  0  0  0
  4 11  2  0  0  0  0
  5  6  2  0  0  0  0
  5 12  1  0  0  0  0
  6 15  1  0  0  0  0
  7 13  1  0  0  0  0
  7 15  2  0  0  0  0
  8 10  1  0  0  0  0
  8 23  2  0  0  0  0
  9 14  2  0  0  0  0
  9 23  1  0  0  0  0
 10 11  1  0  0  0  0
 11 14  1  0  0  0  0
 12 13  2  0  0  0  0
 12 17  1  0  0  0  0
 13 21  1  0  0  0  0
 14 24  1  0  0  0  0
 15 30  1  0  0  0  0
 16 21  1  0  0  0  0
 16 24  1  0  0  0  0
 16 26  2  0  0  0  0
 17 25  1  0  0  0  0
 18 19  1  0  0  0  0
 18 21  1  0  0  0  0
 19 24  1  0  0  0  0
 20 21  1  0  0  0  0
 20 25  1  0  0  0  0
 22 29  1  0  0  0  0
 25 29  1  0  0  0  0
 27 29  2  0  0  0  0
 28 29  2  0  0  0  0
  1 31  1  0  0  0  0
  2 32  1  0  0  0  0
  3 33  1  0  0  0  0
  4 34  1  0  0  0  0
  5 35  1  0  0  0  0
  6 36  1  0  0  0  0
  7 37  1  0  0  0  0
  8 38  1  0  0  0  0
  9 39  1  0  0  0  0
 17 40  1  0  0  0  0
 17 41  1  0  0  0  0
 18 42  1  0  0  0  0
 18 43  1  0  0  0  0
 19 44  1  0  0  0  0
 19 45  1  0  0  0  0
 20 46  1  0  0  0  0
 20 47  1  0  0  0  0
 22 48  1  0  0  0  0
 22 49  1  0  0  0  0
 22 50  1  0  0  0  0
M  END
> <scaffold>
tetrahydroisoquinoline-5spiro-isoquinoline

> <compound>
EDJ-MED-7587a9ee-3

> <compound_smiles>
CS(=O)(=O)N1Cc2ccc(cc2C3(C1)CCN(C3=O)c4cncc5c4cccc5)Cl

> <enantiomer_smiles>
CS(=O)(=O)[N@]1Cc2ccc(cc2[C@@]3(C1)CCN(C3=O)c4cncc5c4cccc5)Cl

> <clash_score>
0

> <docking_score>
3.4028234663852886e+38

> <overlap_score>
0.9786156415939331

> <MMFF_internal_energy>
84.8847469480417

> <docked_smiles>
CS(=O)(=O)[N@]1Cc2ccc(cc2[C@@]3(C1)CCN(C3=O)c4cncc5c4cccc5)Cl

$$$$
JOH-MSK-51c67e7d-1_1
  -OEChem-01042202303D

 47 51  0     1  0  0  0  0  0999 V2000
    3.3444    2.6278   20.4409 C   0  0  0  0  0  0  0  0  0  0  0  0
    3.8974    1.9290   21.5048 C   0  0  0  0  0  0  0  0  0  0  0  0
    3.7877    2.4205   19.1658 C   0  0  0  0  0  0  0  0  0  0  0  0
    4.8986    1.0232   21.2985 C   0  0  0  0  0  0  0  0  0  0  0  0
   12.0781    0.0316   24.1532 C   0  0  0  0  0  0  0  0  0  0  0  0
   12.9147   -0.6032   23.2559 C   0  0  0  0  0  0  0  0  0  0  0  0
   11.0005   -1.4332   22.0435 C   0  0  0  0  0  0  0  0  0  0  0  0
    5.3288    1.2339   17.6062 C   0  0  0  0  0  0  0  0  0  0  0  0
    6.8449   -0.2893   18.3747 C   0  0  0  0  0  0  0  0  0  0  0  0
    4.8238    1.4906   18.9051 C   0  0  0  0  0  0  0  0  0  0  0  0
    5.3995    0.7732   19.9944 C   0  0  0  0  0  0  0  0  0  0  0  0
   10.7056   -0.0626   23.9890 C   0  0  0  0  0  0  0  0  0  0  0  0
   10.1421   -0.7766   22.9242 C   0  0  0  0  0  0  0  0  0  0  0  0
    6.4452   -0.1472   19.6975 C   0  0  0  0  0  0  0  0  0  0  0  0
   12.3697   -1.3298   22.2224 C   0  0  0  0  0  0  0  0  0  0  0  0
    6.9880   -1.9367   21.3575 C   0  0  0  0  0  0  0  0  0  0  0  0
    8.2504    0.0168   21.4265 C   0  0  0  0  0  0  0  0  0  0  0  0
    9.9496    0.5589   24.9527 C   0  0  0  0  0  0  0  0  0  0  0  0
    8.0155   -2.1541   22.4325 C   0  0  0  0  0  0  0  0  0  0  0  0
    7.8737   -0.1194   23.8825 C   0  0  0  0  0  0  0  0  0  0  0  0
    8.6253   -0.7606   22.6923 C   0  0  1  0  0  0  0  0  0  0  0  0
    7.8607    1.7139   25.5743 C   0  0  0  0  0  0  0  0  0  0  0  0
    6.3072    0.3768   17.3417 N   0  0  0  0  0  0  0  0  0  0  0  0
    7.2305   -0.6898   20.7785 N   0  0  0  0  0  0  0  0  0  0  0  0
    8.6625    1.0133   24.4989 N   0  3  3  0  0  0  0  0  0  0  0  0
    6.1284   -2.7641   21.0974 O   0  0  0  0  0  0  0  0  0  0  0  0
    8.7863    1.0639   21.1045 O   0  0  0  0  0  0  0  0  0  0  0  0
   13.4283   -2.1431   21.1089 Cl  0  0  0  0  0  0  0  0  0  0  0  0
    2.5443    3.3508   20.6368 H   0  0  0  0  0  0  0  0  0  0  0  0
    3.5189    2.1137   22.5166 H   0  0  0  0  0  0  0  0  0  0  0  0
    3.3421    2.9744   18.3363 H   0  0  0  0  0  0  0  0  0  0  0  0
    5.3131    0.4893   22.1569 H   0  0  0  0  0  0  0  0  0  0  0  0
   12.5037    0.5971   24.9740 H   0  0  0  0  0  0  0  0  0  0  0  0
   13.9927   -0.5178   23.3781 H   0  0  0  0  0  0  0  0  0  0  0  0
   10.6049   -2.0174   21.2244 H   0  0  0  0  0  0  0  0  0  0  0  0
    4.9151    1.7511   16.7471 H   0  0  0  0  0  0  0  0  0  0  0  0
    7.6455   -0.9765   18.1038 H   0  0  0  0  0  0  0  0  0  0  0  0
    9.7635   -0.1197   25.8259 H   0  0  0  0  0  0  0  0  0  0  0  0
   10.4589    1.4668   25.3682 H   0  0  0  0  0  0  0  0  0  0  0  0
    7.4976   -2.5684   23.3064 H   0  0  0  0  0  0  0  0  0  0  0  0
    8.7549   -2.8877   22.0933 H   0  0  0  0  0  0  0  0  0  0  0  0
    6.8982    0.2933   23.5699 H   0  0  0  0  0  0  0  0  0  0  0  0
    7.6760   -0.8475   24.6905 H   0  0  0  0  0  0  0  0  0  0  0  0
    7.6760    0.9877   26.3681 H   0  0  0  0  0  0  0  0  0  0  0  0
    8.4666    2.5464   25.9370 H   0  0  0  0  0  0  0  0  0  0  0  0
    6.9235    2.0695   25.1420 H   0  0  0  0  0  0  0  0  0  0  0  0
    8.7951    1.7240   23.7548 H   0  0  0  0  0  0  0  0  0  0  0  0
  1  2  2  0  0  0  0
  1  3  1  0  0  0  0
  2  4  1  0  0  0  0
  3 10  2  0  0  0  0
  4 11  2  0  0  0  0
  5  6  2  0  0  0  0
  5 12  1  0  0  0  0
  6 15  1  0  0  0  0
  7 13  1  0  0  0  0
  7 15  2  0  0  0  0
  8 10  1  0  0  0  0
  8 23  2  0  0  0  0
  9 14  2  0  0  0  0
  9 23  1  0  0  0  0
 10 11  1  0  0  0  0
 11 14  1  0  0  0  0
 12 13  2  0  0  0  0
 12 18  1  0  0  0  0
 13 21  1  1  0  0  0
 14 24  1  0  0  0  0
 15 28  1  0  0  0  0
 16 19  1  0  0  0  0
 16 24  1  0  0  0  0
 16 26  2  0  0  0  0
 17 21  1  6  0  0  0
 17 24  1  0  0  0  0
 17 27  2  0  0  0  0
 18 25  1  0  0  0  0
 19 21  1  6  0  0  0
 20 21  1  1  0  0  0
 20 25  1  0  0  0  0
 22 25  1  0  0  0  0
  1 29  1  0  0  0  0
  2 30  1  0  0  0  0
  3 31  1  0  0  0  0
  4 32  1  0  0  0  0
  5 33  1  0  0  0  0
  6 34  1  0  0  0  0
  7 35  1  0  0  0  0
  8 36  1  0  0  0  0
  9 37  1  0  0  0  0
 18 38  1  0  0  0  0
 18 39  1  0  0  0  0
 19 40  1  0  0  0  0
 19 41  1  0  0  0  0
 20 42  1  0  0  0  0
 20 43  1  0  0  0  0
 22 44  1  0  0  0  0
 22 45  1  0  0  0  0
 22 46  1  0  0  0  0
 25 47  1  0  0  0  0
M  CHG  1  25   1
M  END
> <scaffold>
tetrahydroisoquinoline-5spiro-isoquinoline

> <compound>
JOH-MSK-51c67e7d-1

> <compound_smiles>
CN1Cc2ccc(cc2[C@@]3(C1)CC(=O)N(C3=O)c4cncc5c4cccc5)Cl

> <enantiomer_smiles>
C[N@]1Cc2ccc(cc2[C@@]3(C1)CC(=O)N(C3=O)c4cncc5c4cccc5)Cl

> <clash_score>
0

> <docking_score>
3.4028234663852886e+38

> <overlap_score>
1.0

> <MMFF_internal_energy>
110.6857016726393

> <docked_smiles>
C[N@H+]1Cc2ccc(cc2[C@@]3(C1)CC(=O)N(C3=O)c4cncc5c4cccc5)Cl

$$$$
VLA-UNK-56836b69-5_1
  -OEChem-01042202303D

 41 45  0     1  0  0  0  0  0999 V2000
    3.3444    2.6278   20.4409 C   0  0  0  0  0  0  0  0  0  0  0  0
    3.8974    1.9290   21.5048 C   0  0  0  0  0  0  0  0  0  0  0  0
    3.7877    2.4205   19.1658 C   0  0  0  0  0  0  0  0  0  0  0  0
    4.8986    1.0232   21.2985 C   0  0  0  0  0  0  0  0  0  0  0  0
   11.0005   -1.4332   22.0435 C   0  0  0  0  0  0  0  0  0  0  0  0
   12.0781    0.0316   24.1532 C   0  0  0  0  0  0  0  0  0  0  0  0
    5.3288    1.2339   17.6062 C   0  0  0  0  0  0  0  0  0  0  0  0
    6.8449   -0.2893   18.3747 C   0  0  0  0  0  0  0  0  0  0  0  0
    4.8238    1.4906   18.9051 C   0  0  0  0  0  0  0  0  0  0  0  0
    5.3995    0.7732   19.9944 C   0  0  0  0  0  0  0  0  0  0  0  0
   10.1421   -0.7766   22.9242 C   0  0  0  0  0  0  0  0  0  0  0  0
   10.7056   -0.0626   23.9890 C   0  0  0  0  0  0  0  0  0  0  0  0
    6.4452   -0.1472   19.6975 C   0  0  0  0  0  0  0  0  0  0  0  0
   12.3697   -1.3298   22.2224 C   0  0  0  0  0  0  0  0  0  0  0  0
   12.9147   -0.6032   23.2559 C   0  0  0  0  0  0  0  0  0  0  0  0
    8.6625    1.0133   24.4989 C   0  0  0  0  0  0  0  0  0  0  0  0
    8.2504    0.0168   21.4265 C   0  0  0  0  0  0  0  0  0  0  0  0
    6.9880   -1.9367   21.3575 C   0  0  0  0  0  0  0  0  0  0  0  0
    7.8737   -0.1194   23.8825 C   0  0  0  0  0  0  0  0  0  0  0  0
    8.6253   -0.7606   22.6923 C   0  0  2  0  0  0  0  0  0  0  0  0
    6.3072    0.3768   17.3417 N   0  0  0  0  0  0  0  0  0  0  0  0
    9.9496    0.5589   24.9527 N   0  0  0  0  0  0  0  0  0  0  0  0
    8.0155   -2.1541   22.4325 N   0  0  0  0  0  0  0  0  0  0  0  0
    7.2305   -0.6898   20.7785 N   0  0  0  0  0  0  0  0  0  0  0  0
    8.2492    2.1088   24.6774 O   0  0  0  0  0  0  0  0  0  0  0  0
    8.8047    1.0442   21.0961 O   0  0  0  0  0  0  0  0  0  0  0  0
    6.1329   -2.7700   21.1555 O   0  0  0  0  0  0  0  0  0  0  0  0
   13.3799   -2.1569   21.0626 Cl  0  0  0  0  0  0  0  0  0  0  0  0
   14.6221   -0.4403   23.4801 Cl  0  0  0  0  0  0  0  0  0  0  0  0
    2.5443    3.3508   20.6368 H   0  0  0  0  0  0  0  0  0  0  0  0
    3.5189    2.1137   22.5166 H   0  0  0  0  0  0  0  0  0  0  0  0
    3.3421    2.9744   18.3363 H   0  0  0  0  0  0  0  0  0  0  0  0
    5.3131    0.4893   22.1569 H   0  0  0  0  0  0  0  0  0  0  0  0
   10.6032   -2.0093   21.2177 H   0  0  0  0  0  0  0  0  0  0  0  0
   12.4909    0.5985   24.9860 H   0  0  0  0  0  0  0  0  0  0  0  0
    4.9151    1.7511   16.7471 H   0  0  0  0  0  0  0  0  0  0  0  0
    7.6455   -0.9765   18.1038 H   0  0  0  0  0  0  0  0  0  0  0  0
    7.7319   -0.8549   24.6707 H   0  0  0  0  0  0  0  0  0  0  0  0
    6.9077    0.2626   23.5686 H   0  0  0  0  0  0  0  0  0  0  0  0
   10.2108    0.6980   25.8474 H   0  0  0  0  0  0  0  0  0  0  0  0
    8.2178   -2.9436   22.8457 H   0  0  0  0  0  0  0  0  0  0  0  0
  1  2  2  0  0  0  0
  1  3  1  0  0  0  0
  2  4  1  0  0  0  0
  3  9  2  0  0  0  0
  4 10  2  0  0  0  0
  5 11  2  0  0  0  0
  5 14  1  0  0  0  0
  6 12  2  0  0  0  0
  6 15  1  0  0  0  0
  7  9  1  0  0  0  0
  7 21  2  0  0  0  0
  8 13  2  0  0  0  0
  8 21  1  0  0  0  0
  9 10  1  0  0  0  0
 10 13  1  0  0  0  0
 11 12  1  0  0  0  0
 11 20  1  6  0  0  0
 12 22  1  0  0  0  0
 13 24  1  0  0  0  0
 14 15  2  0  0  0  0
 14 28  1  0  0  0  0
 15 29  1  0  0  0  0
 16 19  1  0  0  0  0
 16 22  1  0  0  0  0
 16 25  2  0  0  0  0
 17 20  1  1  0  0  0
 17 24  1  0  0  0  0
 17 26  2  0  0  0  0
 18 23  1  0  0  0  0
 18 24  1  0  0  0  0
 18 27  2  0  0  0  0
 19 20  1  1  0  0  0
 20 23  1  6  0  0  0
  1 30  1  0  0  0  0
  2 31  1  0  0  0  0
  3 32  1  0  0  0  0
  4 33  1  0  0  0  0
  5 34  1  0  0  0  0
  6 35  1  0  0  0  0
  7 36  1  0  0  0  0
  8 37  1  0  0  0  0
 19 38  1  0  0  0  0
 19 39  1  0  0  0  0
 22 40  1  0  0  0  0
 23 41  1  0  0  0  0
M  END
> <scaffold>
tetralinlike-5spiro-isoquinoline

> <compound>
VLA-UNK-56836b69-5

> <compound_smiles>
c1ccc2c(c1)cncc2N3C(=O)[C@@]4(CC(=O)Nc5c4cc(c(c5)Cl)Cl)NC3=O

> <enantiomer_smiles>
c1ccc2c(c1)cncc2N3C(=O)[C@@]4(CC(=O)Nc5c4cc(c(c5)Cl)Cl)NC3=O

> <clash_score>
0

> <docking_score>
3.4028234663852886e+38

> <overlap_score>
1.0152153968811035

> <MMFF_internal_energy>
72.46580765354597

> <docked_smiles>
c1ccc2c(c1)cncc2N3C(=O)[C@@]4(CC(=O)Nc5c4cc(c(c5)Cl)Cl)NC3=O

$$$$
VLA-MRT-8c78ee15-1_1
  -OEChem-01042202303D

 43 47  0     1  0  0  0  0  0999 V2000
    3.3444    2.6278   20.4409 C   0  0  0  0  0  0  0  0  0  0  0  0
    3.8974    1.9290   21.5048 C   0  0  0  0  0  0  0  0  0  0  0  0
    3.7877    2.4205   19.1658 C   0  0  0  0  0  0  0  0  0  0  0  0
    4.8986    1.0232   21.2985 C   0  0  0  0  0  0  0  0  0  0  0  0
   12.0781    0.0316   24.1532 C   0  0  0  0  0  0  0  0  0  0  0  0
   12.9147   -0.6032   23.2559 C   0  0  0  0  0  0  0  0  0  0  0  0
   11.0005   -1.4332   22.0435 C   0  0  0  0  0  0  0  0  0  0  0  0
    5.3288    1.2339   17.6062 C   0  0  0  0  0  0  0  0  0  0  0  0
    6.8449   -0.2893   18.3747 C   0  0  0  0  0  0  0  0  0  0  0  0
    4.8238    1.4906   18.9051 C   0  0  0  0  0  0  0  0  0  0  0  0
    5.3995    0.7732   19.9944 C   0  0  0  0  0  0  0  0  0  0  0  0
   10.7056   -0.0626   23.9890 C   0  0  0  0  0  0  0  0  0  0  0  0
   10.1421   -0.7766   22.9242 C   0  0  0  0  0  0  0  0  0  0  0  0
    6.4452   -0.1472   19.6975 C   0  0  0  0  0  0  0  0  0  0  0  0
   12.3697   -1.3298   22.2224 C   0  0  0  0  0  0  0  0  0  0  0  0
    8.2504    0.0168   21.4265 C   0  0  0  0  0  0  0  0  0  0  0  0
    6.9880   -1.9367   21.3575 C   0  0  0  0  0  0  0  0  0  0  0  0
    9.9496    0.5589   24.9527 C   0  0  0  0  0  0  0  0  0  0  0  0
    7.8737   -0.1194   23.8825 C   0  0  0  0  0  0  0  0  0  0  0  0
    8.6253   -0.7606   22.6923 C   0  0  3  0  0  0  0  0  0  0  0  0
    6.3072    0.3768   17.3417 N   0  0  0  0  0  0  0  0  0  0  0  0
    8.0155   -2.1541   22.4325 N   0  0  0  0  0  0  0  0  0  0  0  0
    7.2305   -0.6898   20.7785 N   0  0  0  0  0  0  0  0  0  0  0  0
    8.6625    1.0133   24.4989 N   0  3  0  0  0  0  0  0  0  0  0  0
    8.7725    1.0689   21.1190 O   0  0  0  0  0  0  0  0  0  0  0  0
    6.1660   -2.7933   21.1186 O   0  0  0  0  0  0  0  0  0  0  0  0
   13.4284   -2.1428   21.1090 Cl  0  0  0  0  0  0  0  0  0  0  0  0
    2.5443    3.3508   20.6368 H   0  0  0  0  0  0  0  0  0  0  0  0
    3.5189    2.1137   22.5166 H   0  0  0  0  0  0  0  0  0  0  0  0
    3.3421    2.9744   18.3363 H   0  0  0  0  0  0  0  0  0  0  0  0
    5.3131    0.4893   22.1569 H   0  0  0  0  0  0  0  0  0  0  0  0
   12.5033    0.5933   24.9775 H   0  0  0  0  0  0  0  0  0  0  0  0
   13.9924   -0.5217   23.3812 H   0  0  0  0  0  0  0  0  0  0  0  0
   10.6065   -2.0230   21.2270 H   0  0  0  0  0  0  0  0  0  0  0  0
    4.9151    1.7511   16.7471 H   0  0  0  0  0  0  0  0  0  0  0  0
    7.6455   -0.9765   18.1038 H   0  0  0  0  0  0  0  0  0  0  0  0
    9.7289   -0.1012   25.8303 H   0  0  0  0  0  0  0  0  0  0  0  0
   10.4623    1.4626   25.3717 H   0  0  0  0  0  0  0  0  0  0  0  0
    6.9054    0.3146   23.5791 H   0  0  0  0  0  0  0  0  0  0  0  0
    7.6868   -0.8359   24.6996 H   0  0  0  0  0  0  0  0  0  0  0  0
    8.2301   -2.9429   22.8417 H   0  0  0  0  0  0  0  0  0  0  0  0
    8.1089    1.4124   25.2681 H   0  0  0  0  0  0  0  0  0  0  0  0
    8.7560    1.7617   23.8007 H   0  0  0  0  0  0  0  0  0  0  0  0
  1  2  2  0  0  0  0
  1  3  1  0  0  0  0
  2  4  1  0  0  0  0
  3 10  2  0  0  0  0
  4 11  2  0  0  0  0
  5  6  2  0  0  0  0
  5 12  1  0  0  0  0
  6 15  1  0  0  0  0
  7 13  1  0  0  0  0
  7 15  2  0  0  0  0
  8 10  1  0  0  0  0
  8 21  2  0  0  0  0
  9 14  2  0  0  0  0
  9 21  1  0  0  0  0
 10 11  1  0  0  0  0
 11 14  1  0  0  0  0
 12 13  2  0  0  0  0
 12 18  1  0  0  0  0
 13 20  1  0  0  0  0
 14 23  1  0  0  0  0
 15 27  1  0  0  0  0
 16 20  1  0  0  0  0
 16 23  1  0  0  0  0
 16 25  2  0  0  0  0
 17 22  1  0  0  0  0
 17 23  1  0  0  0  0
 17 26  2  0  0  0  0
 18 24  1  0  0  0  0
 19 20  1  0  0  0  0
 19 24  1  0  0  0  0
 20 22  1  0  0  0  0
  1 28  1  0  0  0  0
  2 29  1  0  0  0  0
  3 30  1  0  0  0  0
  4 31  1  0  0  0  0
  5 32  1  0  0  0  0
  6 33  1  0  0  0  0
  7 34  1  0  0  0  0
  8 35  1  0  0  0  0
  9 36  1  0  0  0  0
 18 37  1  0  0  0  0
 18 38  1  0  0  0  0
 19 39  1  0  0  0  0
 19 40  1  0  0  0  0
 22 41  1  0  0  0  0
 24 42  1  0  0  0  0
 24 43  1  0  0  0  0
M  CHG  1  24   1
M  END
> <scaffold>
tetrahydroisoquinoline-5spiro-isoquinoline

> <compound>
VLA-MRT-8c78ee15-1

> <compound_smiles>
c1ccc2c(c1)cncc2N3C(=O)C4(CNCc5c4cc(cc5)Cl)NC3=O

> <enantiomer_smiles>
c1ccc2c(c1)cncc2N3C(=O)[C@]4(CNCc5c4cc(cc5)Cl)NC3=O

> <clash_score>
0

> <docking_score>
3.4028234663852886e+38

> <overlap_score>
1.0

> <MMFF_internal_energy>
132.56819857450984

> <docked_smiles>
c1ccc2c(c1)cncc2N3C(=O)[C@]4(C[NH2+]Cc5c4cc(cc5)Cl)NC3=O

$$$$
JOH-MSK-51c67e7d-2_1
  -OEChem-01042202303D

 47 51  0     1  0  0  0  0  0999 V2000
    3.3444    2.6278   20.4409 C   0  0  0  0  0  0  0  0  0  0  0  0
    3.8974    1.9290   21.5048 C   0  0  0  0  0  0  0  0  0  0  0  0
    3.7877    2.4205   19.1658 C   0  0  0  0  0  0  0  0  0  0  0  0
    4.8986    1.0232   21.2985 C   0  0  0  0  0  0  0  0  0  0  0  0
   12.0781    0.0316   24.1532 C   0  0  0  0  0  0  0  0  0  0  0  0
   12.9147   -0.6032   23.2559 C   0  0  0  0  0  0  0  0  0  0  0  0
   11.0005   -1.4332   22.0435 C   0  0  0  0  0  0  0  0  0  0  0  0
    5.3288    1.2339   17.6062 C   0  0  0  0  0  0  0  0  0  0  0  0
    6.8449   -0.2893   18.3747 C   0  0  0  0  0  0  0  0  0  0  0  0
    4.8238    1.4906   18.9051 C   0  0  0  0  0  0  0  0  0  0  0  0
    5.3995    0.7732   19.9944 C   0  0  0  0  0  0  0  0  0  0  0  0
   10.7056   -0.0626   23.9890 C   0  0  0  0  0  0  0  0  0  0  0  0
   10.1421   -0.7766   22.9242 C   0  0  0  0  0  0  0  0  0  0  0  0
    6.4452   -0.1472   19.6975 C   0  0  0  0  0  0  0  0  0  0  0  0
   12.3697   -1.3298   22.2224 C   0  0  0  0  0  0  0  0  0  0  0  0
    6.9880   -1.9367   21.3575 C   0  0  0  0  0  0  0  0  0  0  0  0
    8.2504    0.0168   21.4265 C   0  0  0  0  0  0  0  0  0  0  0  0
    9.9496    0.5589   24.9527 C   0  0  0  0  0  0  0  0  0  0  0  0
    8.0155   -2.1541   22.4325 C   0  0  0  0  0  0  0  0  0  0  0  0
    7.8737   -0.1194   23.8825 C   0  0  0  0  0  0  0  0  0  0  0  0
    8.6253   -0.7606   22.6923 C   0  0  2  0  0  0  0  0  0  0  0  0
    8.7417    2.1971   23.5595 C   0  0  0  0  0  0  0  0  0  0  0  0
    6.3072    0.3768   17.3417 N   0  0  0  0  0  0  0  0  0  0  0  0
    7.2305   -0.6898   20.7785 N   0  0  0  0  0  0  0  0  0  0  0  0
    8.6625    1.0133   24.4989 N   0  3  3  0  0  0  0  0  0  0  0  0
    6.1215   -2.7591   21.1049 O   0  0  0  0  0  0  0  0  0  0  0  0
    8.7917    1.0597   21.1004 O   0  0  0  0  0  0  0  0  0  0  0  0
   13.4287   -2.1418   21.1083 Cl  0  0  0  0  0  0  0  0  0  0  0  0
    2.5443    3.3508   20.6368 H   0  0  0  0  0  0  0  0  0  0  0  0
    3.5189    2.1137   22.5166 H   0  0  0  0  0  0  0  0  0  0  0  0
    3.3421    2.9744   18.3363 H   0  0  0  0  0  0  0  0  0  0  0  0
    5.3131    0.4893   22.1569 H   0  0  0  0  0  0  0  0  0  0  0  0
   12.5035    0.5944   24.9760 H   0  0  0  0  0  0  0  0  0  0  0  0
   13.9927   -0.5198   23.3796 H   0  0  0  0  0  0  0  0  0  0  0  0
   10.6048   -2.0220   21.2279 H   0  0  0  0  0  0  0  0  0  0  0  0
    4.9151    1.7511   16.7471 H   0  0  0  0  0  0  0  0  0  0  0  0
    7.6455   -0.9765   18.1038 H   0  0  0  0  0  0  0  0  0  0  0  0
    9.7399   -0.1142   25.8240 H   0  0  0  0  0  0  0  0  0  0  0  0
   10.4789    1.4541   25.3723 H   0  0  0  0  0  0  0  0  0  0  0  0
    7.5364   -2.5825   23.3194 H   0  0  0  0  0  0  0  0  0  0  0  0
    8.7444   -2.8804   22.0516 H   0  0  0  0  0  0  0  0  0  0  0  0
    6.8963    0.2998   23.5808 H   0  0  0  0  0  0  0  0  0  0  0  0
    7.6793   -0.8561   24.6819 H   0  0  0  0  0  0  0  0  0  0  0  0
    9.2917    1.8738   22.6738 H   0  0  0  0  0  0  0  0  0  0  0  0
    7.7291    2.5114   23.2998 H   0  0  0  0  0  0  0  0  0  0  0  0
    9.2763    2.9904   24.0855 H   0  0  0  0  0  0  0  0  0  0  0  0
    8.1139    1.3496   25.3124 H   0  0  0  0  0  0  0  0  0  0  0  0
  1  2  2  0  0  0  0
  1  3  1  0  0  0  0
  2  4  1  0  0  0  0
  3 10  2  0  0  0  0
  4 11  2  0  0  0  0
  5  6  2  0  0  0  0
  5 12  1  0  0  0  0
  6 15  1  0  0  0  0
  7 13  1  0  0  0  0
  7 15  2  0  0  0  0
  8 10  1  0  0  0  0
  8 23  2  0  0  0  0
  9 14  2  0  0  0  0
  9 23  1  0  0  0  0
 10 11  1  0  0  0  0
 11 14  1  0  0  0  0
 12 13  2  0  0  0  0
 12 18  1  0  0  0  0
 13 21  1  6  0  0  0
 14 24  1  0  0  0  0
 15 28  1  0  0  0  0
 16 19  1  0  0  0  0
 16 24  1  0  0  0  0
 16 26  2  0  0  0  0
 17 21  1  1  0  0  0
 17 24  1  0  0  0  0
 17 27  2  0  0  0  0
 18 25  1  0  0  0  0
 19 21  1  1  0  0  0
 20 21  1  6  0  0  0
 20 25  1  0  0  0  0
 22 25  1  0  0  0  0
  1 29  1  0  0  0  0
  2 30  1  0  0  0  0
  3 31  1  0  0  0  0
  4 32  1  0  0  0  0
  5 33  1  0  0  0  0
  6 34  1  0  0  0  0
  7 35  1  0  0  0  0
  8 36  1  0  0  0  0
  9 37  1  0  0  0  0
 18 38  1  0  0  0  0
 18 39  1  0  0  0  0
 19 40  1  0  0  0  0
 19 41  1  0  0  0  0
 20 42  1  0  0  0  0
 20 43  1  0  0  0  0
 22 44  1  0  0  0  0
 22 45  1  0  0  0  0
 22 46  1  0  0  0  0
 25 47  1  0  0  0  0
M  CHG  1  25   1
M  END
> <scaffold>
tetrahydroisoquinoline-5spiro-isoquinoline

> <compound>
JOH-MSK-51c67e7d-2

> <compound_smiles>
CN1Cc2ccc(cc2[C@]3(C1)CC(=O)N(C3=O)c4cncc5c4cccc5)Cl

> <enantiomer_smiles>
C[N@@]1Cc2ccc(cc2[C@]3(C1)CC(=O)N(C3=O)c4cncc5c4cccc5)Cl

> <clash_score>
0

> <docking_score>
3.4028234663852886e+38

> <overlap_score>
1.0

> <MMFF_internal_energy>
123.10609549407165

> <docked_smiles>
C[N@@H+]1Cc2ccc(cc2[C@]3(C1)CC(=O)N(C3=O)c4cncc5c4cccc5)Cl

$$$$
EDJ-MED-8bb691af-8_1
  -OEChem-01042202303D

 53 57  0     1  0  0  0  0  0999 V2000
    3.3444    2.6278   20.4409 C   0  0  0  0  0  0  0  0  0  0  0  0
    3.8974    1.9290   21.5048 C   0  0  0  0  0  0  0  0  0  0  0  0
    3.7877    2.4205   19.1658 C   0  0  0  0  0  0  0  0  0  0  0  0
    4.8986    1.0232   21.2985 C   0  0  0  0  0  0  0  0  0  0  0  0
   12.0781    0.0316   24.1532 C   0  0  0  0  0  0  0  0  0  0  0  0
   12.9147   -0.6032   23.2559 C   0  0  0  0  0  0  0  0  0  0  0  0
   11.0005   -1.4332   22.0435 C   0  0  0  0  0  0  0  0  0  0  0  0
    5.3288    1.2339   17.6062 C   0  0  0  0  0  0  0  0  0  0  0  0
    6.8449   -0.2893   18.3747 C   0  0  0  0  0  0  0  0  0  0  0  0
    4.8238    1.4906   18.9051 C   0  0  0  0  0  0  0  0  0  0  0  0
    5.3995    0.7732   19.9944 C   0  0  0  0  0  0  0  0  0  0  0  0
   10.7056   -0.0626   23.9890 C   0  0  0  0  0  0  0  0  0  0  0  0
   10.1421   -0.7766   22.9242 C   0  0  0  0  0  0  0  0  0  0  0  0
    6.4452   -0.1472   19.6975 C   0  0  0  0  0  0  0  0  0  0  0  0
   12.3697   -1.3298   22.2224 C   0  0  0  0  0  0  0  0  0  0  0  0
    9.9496    0.5589   24.9527 C   0  0  0  0  0  0  0  0  0  0  0  0
    8.2504    0.0168   21.4265 C   0  0  0  0  0  0  0  0  0  0  0  0
    7.2900    2.1445   26.0369 C   0  0  0  0  0  0  0  0  0  0  0  0
    8.0155   -2.1541   22.4325 C   0  0  0  0  0  0  0  0  0  0  0  0
    6.9880   -1.9367   21.3575 C   0  0  0  0  0  0  0  0  0  0  0  0
    7.8737   -0.1194   23.8825 C   0  0  0  0  0  0  0  0  0  0  0  0
    8.6253   -0.7606   22.6923 C   0  0  3  0  0  0  0  0  0  0  0  0
    6.5711    3.5767   27.9463 C   0  0  0  0  0  0  0  0  0  0  0  0
    8.0937    2.2235   24.7641 C   0  0  0  0  0  0  0  0  0  0  0  0
    6.3072    0.3768   17.3417 N   0  0  0  0  0  0  0  0  0  0  0  0
    7.2305   -0.6898   20.7785 N   0  0  0  0  0  0  0  0  0  0  0  0
    8.6625    1.0133   24.4989 N   0  0  0  0  0  0  0  0  0  0  0  0
    7.2701    3.3635   26.6994 N   0  0  0  0  0  0  0  0  0  0  0  0
   10.3233    0.7301   26.1084 O   0  0  0  0  0  0  0  0  0  0  0  0
    8.8205    1.0412   21.0776 O   0  0  0  0  0  0  0  0  0  0  0  0
    6.7292    1.1210   26.4195 O   0  0  0  0  0  0  0  0  0  0  0  0
   13.4288   -2.1465   21.1124 Cl  0  0  0  0  0  0  0  0  0  0  0  0
    2.5443    3.3508   20.6368 H   0  0  0  0  0  0  0  0  0  0  0  0
    3.5189    2.1137   22.5166 H   0  0  0  0  0  0  0  0  0  0  0  0
    3.3421    2.9744   18.3363 H   0  0  0  0  0  0  0  0  0  0  0  0
    5.3131    0.4893   22.1569 H   0  0  0  0  0  0  0  0  0  0  0  0
   12.5188    0.5961   24.9710 H   0  0  0  0  0  0  0  0  0  0  0  0
   13.9920   -0.5226   23.3817 H   0  0  0  0  0  0  0  0  0  0  0  0
   10.6143   -2.0253   21.2266 H   0  0  0  0  0  0  0  0  0  0  0  0
    4.9151    1.7511   16.7471 H   0  0  0  0  0  0  0  0  0  0  0  0
    7.6455   -0.9765   18.1038 H   0  0  0  0  0  0  0  0  0  0  0  0
    7.5128   -2.5277   23.3386 H   0  0  0  0  0  0  0  0  0  0  0  0
    8.7593   -2.9102   22.1430 H   0  0  0  0  0  0  0  0  0  0  0  0
    7.0602   -2.7255   20.5716 H   0  0  0  0  0  0  0  0  0  0  0  0
    5.9526   -1.9964   21.7706 H   0  0  0  0  0  0  0  0  0  0  0  0
    6.9217    0.3182   23.5732 H   0  0  0  0  0  0  0  0  0  0  0  0
    7.6678   -0.8543   24.6617 H   0  0  0  0  0  0  0  0  0  0  0  0
    5.5409    3.9020   27.7387 H   0  0  0  0  0  0  0  0  0  0  0  0
    6.5506    2.6385   28.5201 H   0  0  0  0  0  0  0  0  0  0  0  0
    7.0898    4.3520   28.5293 H   0  0  0  0  0  0  0  0  0  0  0  0
    7.4419    2.5111   23.9339 H   0  0  0  0  0  0  0  0  0  0  0  0
    8.8897    2.9659   24.8736 H   0  0  0  0  0  0  0  0  0  0  0  0
    7.7718    4.1449   26.2876 H   0  0  0  0  0  0  0  0  0  0  0  0
  1  2  2  0  0  0  0
  1  3  1  0  0  0  0
  2  4  1  0  0  0  0
  3 10  2  0  0  0  0
  4 11  2  0  0  0  0
  5  6  2  0  0  0  0
  5 12  1  0  0  0  0
  6 15  1  0  0  0  0
  7 13  1  0  0  0  0
  7 15  2  0  0  0  0
  8 10  1  0  0  0  0
  8 25  2  0  0  0  0
  9 14  2  0  0  0  0
  9 25  1  0  0  0  0
 10 11  1  0  0  0  0
 11 14  1  0  0  0  0
 12 13  2  0  0  0  0
 12 16  1  0  0  0  0
 13 22  1  0  0  0  0
 14 26  1  0  0  0  0
 15 32  1  0  0  0  0
 16 27  1  0  0  0  0
 16 29  2  0  0  0  0
 17 22  1  0  0  0  0
 17 26  1  0  0  0  0
 17 30  2  0  0  0  0
 18 24  1  0  0  0  0
 18 28  1  0  0  0  0
 18 31  2  0  0  0  0
 19 20  1  0  0  0  0
 19 22  1  0  0  0  0
 20 26  1  0  0  0  0
 21 22  1  0  0  0  0
 21 27  1  0  0  0  0
 23 28  1  0  0  0  0
 24 27  1  0  0  0  0
  1 33  1  0  0  0  0
  2 34  1  0  0  0  0
  3 35  1  0  0  0  0
  4 36  1  0  0  0  0
  5 37  1  0  0  0  0
  6 38  1  0  0  0  0
  7 39  1  0  0  0  0
  8 40  1  0  0  0  0
  9 41  1  0  0  0  0
 19 42  1  0  0  0  0
 19 43  1  0  0  0  0
 20 44  1  0  0  0  0
 20 45  1  0  0  0  0
 21 46  1  0  0  0  0
 21 47  1  0  0  0  0
 23 48  1  0  0  0  0
 23 49  1  0  0  0  0
 23 50  1  0  0  0  0
 24 51  1  0  0  0  0
 24 52  1  0  0  0  0
 28 53  1  0  0  0  0
M  END
> <scaffold>
tetrahydroisoquinoline-5spiro-isoquinoline

> <compound>
EDJ-MED-8bb691af-8

> <compound_smiles>
CNC(=O)CN1CC2(CCN(C2=O)c3cncc4c3cccc4)c5cc(ccc5C1=O)Cl

> <enantiomer_smiles>
CNC(=O)CN1C[C@]2(CCN(C2=O)c3cncc4c3cccc4)c5cc(ccc5C1=O)Cl

> <clash_score>
0

> <docking_score>
3.4028234663852886e+38

> <overlap_score>
0.9896502494812012

> <MMFF_internal_energy>
158.84807719662504

> <docked_smiles>
CNC(=O)CN1C[C@]2(CCN(C2=O)c3cncc4c3cccc4)c5cc(ccc5C1=O)Cl

$$$$
EDJ-MED-8bb691af-7_1
  -OEChem-01042202303D

 54 58  0     1  0  0  0  0  0999 V2000
    3.3444    2.6278   20.4409 C   0  0  0  0  0  0  0  0  0  0  0  0
    3.8974    1.9290   21.5048 C   0  0  0  0  0  0  0  0  0  0  0  0
    3.7877    2.4205   19.1658 C   0  0  0  0  0  0  0  0  0  0  0  0
    4.8986    1.0232   21.2985 C   0  0  0  0  0  0  0  0  0  0  0  0
   12.0781    0.0316   24.1532 C   0  0  0  0  0  0  0  0  0  0  0  0
   12.9147   -0.6032   23.2559 C   0  0  0  0  0  0  0  0  0  0  0  0
   11.0005   -1.4332   22.0435 C   0  0  0  0  0  0  0  0  0  0  0  0
    5.3288    1.2339   17.6062 C   0  0  0  0  0  0  0  0  0  0  0  0
    6.8449   -0.2893   18.3747 C   0  0  0  0  0  0  0  0  0  0  0  0
    4.8238    1.4906   18.9051 C   0  0  0  0  0  0  0  0  0  0  0  0
    5.3995    0.7732   19.9944 C   0  0  0  0  0  0  0  0  0  0  0  0
   10.7056   -0.0626   23.9890 C   0  0  0  0  0  0  0  0  0  0  0  0
   10.1421   -0.7766   22.9242 C   0  0  0  0  0  0  0  0  0  0  0  0
    6.4452   -0.1472   19.6975 C   0  0  0  0  0  0  0  0  0  0  0  0
   12.3697   -1.3298   22.2224 C   0  0  0  0  0  0  0  0  0  0  0  0
    9.9496    0.5589   24.9527 C   0  0  0  0  0  0  0  0  0  0  0  0
    8.4969    3.1970   23.6646 C   0  0  0  0  0  0  0  0  0  0  0  0
    8.0155   -2.1541   22.4325 C   0  0  0  0  0  0  0  0  0  0  0  0
    6.9880   -1.9367   21.3575 C   0  0  0  0  0  0  0  0  0  0  0  0
    8.2504    0.0168   21.4265 C   0  0  0  0  0  0  0  0  0  0  0  0
    7.8737   -0.1194   23.8825 C   0  0  0  0  0  0  0  0  0  0  0  0
    8.6253   -0.7606   22.6923 C   0  0  3  0  0  0  0  0  0  0  0  0
    7.6428    5.2199   22.4847 C   0  0  0  0  0  0  0  0  0  0  0  0
    8.0983    2.2315   24.7514 C   0  0  0  0  0  0  0  0  0  0  0  0
    6.3072    0.3768   17.3417 N   0  0  0  0  0  0  0  0  0  0  0  0
    7.2305   -0.6898   20.7785 N   0  0  3  0  0  0  0  0  0  0  0  0
    8.6625    1.0133   24.4989 N   0  0  0  0  0  0  0  0  0  0  0  0
    7.5226    4.1643   23.4645 N   0  0  0  0  0  0  0  0  0  0  0  0
   10.3215    0.7237   26.1123 O   0  0  0  0  0  0  0  0  0  0  0  0
    9.5565    3.1207   23.0482 O   0  0  0  0  0  0  0  0  0  0  0  0
   13.4295   -2.1460   21.1126 Cl  0  0  0  0  0  0  0  0  0  0  0  0
    2.5445    3.3511   20.6368 H   0  0  0  0  0  0  0  0  0  0  0  0
    3.5193    2.1138   22.5167 H   0  0  0  0  0  0  0  0  0  0  0  0
    3.3422    2.9745   18.3362 H   0  0  0  0  0  0  0  0  0  0  0  0
    5.3126    0.4886   22.1566 H   0  0  0  0  0  0  0  0  0  0  0  0
   12.5199    0.5984   24.9685 H   0  0  0  0  0  0  0  0  0  0  0  0
   13.9924   -0.5207   23.3800 H   0  0  0  0  0  0  0  0  0  0  0  0
   10.6192   -2.0267   21.2280 H   0  0  0  0  0  0  0  0  0  0  0  0
    4.9147    1.7513   16.7473 H   0  0  0  0  0  0  0  0  0  0  0  0
    7.6457   -0.9763   18.1044 H   0  0  0  0  0  0  0  0  0  0  0  0
    7.5176   -2.5257   23.3436 H   0  0  0  0  0  0  0  0  0  0  0  0
    8.7602   -2.9110   22.1420 H   0  0  0  0  0  0  0  0  0  0  0  0
    7.0441   -2.7484   20.5868 H   0  0  0  0  0  0  0  0  0  0  0  0
    5.9573   -2.0202   21.7931 H   0  0  0  0  0  0  0  0  0  0  0  0
    7.8799    1.0371   21.6949 H   0  0  0  0  0  0  0  0  0  0  0  0
    9.1364    0.1997   20.7672 H   0  0  0  0  0  0  0  0  0  0  0  0
    6.9232    0.3150   23.5688 H   0  0  0  0  0  0  0  0  0  0  0  0
    7.6791   -0.8501   24.6670 H   0  0  0  0  0  0  0  0  0  0  0  0
    8.1289    6.0934   22.9438 H   0  0  0  0  0  0  0  0  0  0  0  0
    8.2489    4.8663   21.6375 H   0  0  0  0  0  0  0  0  0  0  0  0
    6.6421    5.5034   22.1266 H   0  0  0  0  0  0  0  0  0  0  0  0
    8.4547    2.5979   25.7186 H   0  0  0  0  0  0  0  0  0  0  0  0
    7.0090    2.1344   24.7800 H   0  0  0  0  0  0  0  0  0  0  0  0
    6.6828    4.1289   24.0351 H   0  0  0  0  0  0  0  0  0  0  0  0
  1  2  2  0  0  0  0
  1  3  1  0  0  0  0
  2  4  1  0  0  0  0
  3 10  2  0  0  0  0
  4 11  2  0  0  0  0
  5  6  2  0  0  0  0
  5 12  1  0  0  0  0
  6 15  1  0  0  0  0
  7 13  1  0  0  0  0
  7 15  2  0  0  0  0
  8 10  1  0  0  0  0
  8 25  2  0  0  0  0
  9 14  2  0  0  0  0
  9 25  1  0  0  0  0
 10 11  1  0  0  0  0
 11 14  1  0  0  0  0
 12 13  2  0  0  0  0
 12 16  1  0  0  0  0
 13 22  1  0  0  0  0
 14 26  1  0  0  0  0
 15 31  1  0  0  0  0
 16 27  1  0  0  0  0
 16 29  2  0  0  0  0
 17 24  1  0  0  0  0
 17 28  1  0  0  0  0
 17 30  2  0  0  0  0
 18 19  1  0  0  0  0
 18 22  1  0  0  0  0
 19 26  1  0  0  0  0
 20 22  1  0  0  0  0
 20 26  1  0  0  0  0
 21 22  1  0  0  0  0
 21 27  1  0  0  0  0
 23 28  1  0  0  0  0
 24 27  1  0  0  0  0
  1 32  1  0  0  0  0
  2 33  1  0  0  0  0
  3 34  1  0  0  0  0
  4 35  1  0  0  0  0
  5 36  1  0  0  0  0
  6 37  1  0  0  0  0
  7 38  1  0  0  0  0
  8 39  1  0  0  0  0
  9 40  1  0  0  0  0
 18 41  1  0  0  0  0
 18 42  1  0  0  0  0
 19 43  1  0  0  0  0
 19 44  1  0  0  0  0
 20 45  1  0  0  0  0
 20 46  1  0  0  0  0
 21 47  1  0  0  0  0
 21 48  1  0  0  0  0
 23 49  1  0  0  0  0
 23 50  1  0  0  0  0
 23 51  1  0  0  0  0
 24 52  1  0  0  0  0
 24 53  1  0  0  0  0
 28 54  1  0  0  0  0
M  END
> <scaffold>
tetrahydroisoquinoline-5spiro-isoquinoline

> <compound>
EDJ-MED-8bb691af-7

> <compound_smiles>
CNC(=O)CN1CC2(CCN(C2)c3cncc4c3cccc4)c5cc(ccc5C1=O)Cl

> <enantiomer_smiles>
CNC(=O)CN1C[C@]2(CCN(C2)c3cncc4c3cccc4)c5cc(ccc5C1=O)Cl

> <clash_score>
0

> <docking_score>
3.4028234663852886e+38

> <overlap_score>
0.9637980461120605

> <MMFF_internal_energy>
178.69539624169315

> <docked_smiles>
CNC(=O)CN1C[C@]2(CCN(C2)c3cncc4c3cccc4)c5cc(ccc5C1=O)Cl

$$$$
PET-UNK-14142a25-1_1
  -OEChem-01042202303D

 53 57  0     1  0  0  0  0  0999 V2000
    3.3444    2.6278   20.4409 C   0  0  0  0  0  0  0  0  0  0  0  0
    3.8974    1.9290   21.5048 C   0  0  0  0  0  0  0  0  0  0  0  0
    3.7877    2.4205   19.1658 C   0  0  0  0  0  0  0  0  0  0  0  0
    4.8986    1.0232   21.2985 C   0  0  0  0  0  0  0  0  0  0  0  0
   12.0781    0.0316   24.1532 C   0  0  0  0  0  0  0  0  0  0  0  0
   12.9147   -0.6032   23.2559 C   0  0  0  0  0  0  0  0  0  0  0  0
   11.0005   -1.4332   22.0435 C   0  0  0  0  0  0  0  0  0  0  0  0
    5.3288    1.2339   17.6062 C   0  0  0  0  0  0  0  0  0  0  0  0
    6.8449   -0.2893   18.3747 C   0  0  0  0  0  0  0  0  0  0  0  0
    4.8238    1.4906   18.9051 C   0  0  0  0  0  0  0  0  0  0  0  0
    5.3995    0.7732   19.9944 C   0  0  0  0  0  0  0  0  0  0  0  0
   10.7056   -0.0626   23.9890 C   0  0  0  0  0  0  0  0  0  0  0  0
   10.1421   -0.7766   22.9242 C   0  0  0  0  0  0  0  0  0  0  0  0
    6.4452   -0.1472   19.6975 C   0  0  0  0  0  0  0  0  0  0  0  0
   12.3697   -1.3298   22.2224 C   0  0  0  0  0  0  0  0  0  0  0  0
    9.9496    0.5589   24.9527 C   0  0  0  0  0  0  0  0  0  0  0  0
    8.2504    0.0168   21.4265 C   0  0  0  0  0  0  0  0  0  0  0  0
    7.2900    2.1445   26.0369 C   0  0  0  0  0  0  0  0  0  0  0  0
    8.0155   -2.1541   22.4325 C   0  0  0  0  0  0  0  0  0  0  0  0
    6.9880   -1.9367   21.3575 C   0  0  0  0  0  0  0  0  0  0  0  0
    7.8737   -0.1194   23.8825 C   0  0  0  0  0  0  0  0  0  0  0  0
    8.6253   -0.7606   22.6923 C   0  0  1  0  0  0  0  0  0  0  0  0
    6.5711    3.5767   27.9463 C   0  0  0  0  0  0  0  0  0  0  0  0
    8.0937    2.2235   24.7641 C   0  0  0  0  0  0  0  0  0  0  0  0
    6.3072    0.3768   17.3417 N   0  0  0  0  0  0  0  0  0  0  0  0
    7.2305   -0.6898   20.7785 N   0  0  0  0  0  0  0  0  0  0  0  0
    8.6625    1.0133   24.4989 N   0  0  0  0  0  0  0  0  0  0  0  0
    7.2701    3.3635   26.6994 N   0  0  0  0  0  0  0  0  0  0  0  0
   10.3233    0.7301   26.1084 O   0  0  0  0  0  0  0  0  0  0  0  0
    8.8205    1.0412   21.0776 O   0  0  0  0  0  0  0  0  0  0  0  0
    6.7292    1.1210   26.4195 O   0  0  0  0  0  0  0  0  0  0  0  0
   13.4288   -2.1465   21.1124 Cl  0  0  0  0  0  0  0  0  0  0  0  0
    2.5443    3.3508   20.6368 H   0  0  0  0  0  0  0  0  0  0  0  0
    3.5189    2.1137   22.5166 H   0  0  0  0  0  0  0  0  0  0  0  0
    3.3421    2.9744   18.3363 H   0  0  0  0  0  0  0  0  0  0  0  0
    5.3131    0.4893   22.1569 H   0  0  0  0  0  0  0  0  0  0  0  0
   12.5188    0.5961   24.9710 H   0  0  0  0  0  0  0  0  0  0  0  0
   13.9920   -0.5226   23.3817 H   0  0  0  0  0  0  0  0  0  0  0  0
   10.6143   -2.0253   21.2266 H   0  0  0  0  0  0  0  0  0  0  0  0
    4.9151    1.7511   16.7471 H   0  0  0  0  0  0  0  0  0  0  0  0
    7.6455   -0.9765   18.1038 H   0  0  0  0  0  0  0  0  0  0  0  0
    7.5128   -2.5277   23.3386 H   0  0  0  0  0  0  0  0  0  0  0  0
    8.7593   -2.9102   22.1430 H   0  0  0  0  0  0  0  0  0  0  0  0
    7.0602   -2.7255   20.5716 H   0  0  0  0  0  0  0  0  0  0  0  0
    5.9526   -1.9964   21.7706 H   0  0  0  0  0  0  0  0  0  0  0  0
    6.9217    0.3182   23.5732 H   0  0  0  0  0  0  0  0  0  0  0  0
    7.6678   -0.8543   24.6617 H   0  0  0  0  0  0  0  0  0  0  0  0
    5.5409    3.9020   27.7387 H   0  0  0  0  0  0  0  0  0  0  0  0
    6.5506    2.6385   28.5201 H   0  0  0  0  0  0  0  0  0  0  0  0
    7.0898    4.3520   28.5293 H   0  0  0  0  0  0  0  0  0  0  0  0
    7.4419    2.5111   23.9339 H   0  0  0  0  0  0  0  0  0  0  0  0
    8.8897    2.9659   24.8736 H   0  0  0  0  0  0  0  0  0  0  0  0
    7.7718    4.1449   26.2876 H   0  0  0  0  0  0  0  0  0  0  0  0
  1  2  2  0  0  0  0
  1  3  1  0  0  0  0
  2  4  1  0  0  0  0
  3 10  2  0  0  0  0
  4 11  2  0  0  0  0
  5  6  2  0  0  0  0
  5 12  1  0  0  0  0
  6 15  1  0  0  0  0
  7 13  1  0  0  0  0
  7 15  2  0  0  0  0
  8 10  1  0  0  0  0
  8 25  2  0  0  0  0
  9 14  2  0  0  0  0
  9 25  1  0  0  0  0
 10 11  1  0  0  0  0
 11 14  1  0  0  0  0
 12 13  2  0  0  0  0
 12 16  1  0  0  0  0
 13 22  1  1  0  0  0
 14 26  1  0  0  0  0
 15 32  1  0  0  0  0
 16 27  1  0  0  0  0
 16 29  2  0  0  0  0
 17 22  1  1  0  0  0
 17 26  1  0  0  0  0
 17 30  2  0  0  0  0
 18 24  1  0  0  0  0
 18 28  1  0  0  0  0
 18 31  2  0  0  0  0
 19 20  1  0  0  0  0
 19 22  1  6  0  0  0
 20 26  1  0  0  0  0
 21 22  1  6  0  0  0
 21 27  1  0  0  0  0
 23 28  1  0  0  0  0
 24 27  1  0  0  0  0
  1 33  1  0  0  0  0
  2 34  1  0  0  0  0
  3 35  1  0  0  0  0
  4 36  1  0  0  0  0
  5 37  1  0  0  0  0
  6 38  1  0  0  0  0
  7 39  1  0  0  0  0
  8 40  1  0  0  0  0
  9 41  1  0  0  0  0
 19 42  1  0  0  0  0
 19 43  1  0  0  0  0
 20 44  1  0  0  0  0
 20 45  1  0  0  0  0
 21 46  1  0  0  0  0
 21 47  1  0  0  0  0
 23 48  1  0  0  0  0
 23 49  1  0  0  0  0
 23 50  1  0  0  0  0
 24 51  1  0  0  0  0
 24 52  1  0  0  0  0
 28 53  1  0  0  0  0
M  END
> <scaffold>
tetrahydroisoquinoline-5spiro-isoquinoline

> <compound>
PET-UNK-14142a25-1

> <compound_smiles>
CNC(=O)CN1C[C@]2(CCN(C2=O)c3cncc4c3cccc4)c5cc(ccc5C1=O)Cl

> <enantiomer_smiles>
CNC(=O)CN1C[C@]2(CCN(C2=O)c3cncc4c3cccc4)c5cc(ccc5C1=O)Cl

> <clash_score>
0

> <docking_score>
3.4028234663852886e+38

> <overlap_score>
0.9896502494812012

> <MMFF_internal_energy>
158.84807719662504

> <docked_smiles>
CNC(=O)CN1C[C@]2(CCN(C2=O)c3cncc4c3cccc4)c5cc(ccc5C1=O)Cl

$$$$
VLA-MRT-a639d434-1_1
  -OEChem-01042202303D

 53 57  0     1  0  0  0  0  0999 V2000
    3.3444    2.6278   20.4409 C   0  0  0  0  0  0  0  0  0  0  0  0
    3.8974    1.9290   21.5048 C   0  0  0  0  0  0  0  0  0  0  0  0
    3.7877    2.4205   19.1658 C   0  0  0  0  0  0  0  0  0  0  0  0
    4.8986    1.0232   21.2985 C   0  0  0  0  0  0  0  0  0  0  0  0
   12.0781    0.0316   24.1532 C   0  0  0  0  0  0  0  0  0  0  0  0
   12.9147   -0.6032   23.2559 C   0  0  0  0  0  0  0  0  0  0  0  0
   11.0005   -1.4332   22.0435 C   0  0  0  0  0  0  0  0  0  0  0  0
    5.3288    1.2339   17.6062 C   0  0  0  0  0  0  0  0  0  0  0  0
    6.8449   -0.2893   18.3747 C   0  0  0  0  0  0  0  0  0  0  0  0
    4.8238    1.4906   18.9051 C   0  0  0  0  0  0  0  0  0  0  0  0
    5.3995    0.7732   19.9944 C   0  0  0  0  0  0  0  0  0  0  0  0
   10.7056   -0.0626   23.9890 C   0  0  0  0  0  0  0  0  0  0  0  0
   10.1421   -0.7766   22.9242 C   0  0  0  0  0  0  0  0  0  0  0  0
    6.4452   -0.1472   19.6975 C   0  0  0  0  0  0  0  0  0  0  0  0
   12.3697   -1.3298   22.2224 C   0  0  0  0  0  0  0  0  0  0  0  0
    8.2504    0.0168   21.4265 C   0  0  0  0  0  0  0  0  0  0  0  0
    6.9880   -1.9367   21.3575 C   0  0  0  0  0  0  0  0  0  0  0  0
    6.7828    2.6003   24.9987 C   0  0  0  0  0  0  0  0  0  0  0  0
    9.9496    0.5589   24.9527 C   0  0  0  0  0  0  0  0  0  0  0  0
    7.8737   -0.1194   23.8825 C   0  0  0  0  0  0  0  0  0  0  0  0
    8.6253   -0.7606   22.6923 C   0  0  1  0  0  0  0  0  0  0  0  0
    4.5245    3.4743   25.5217 C   0  0  0  0  0  0  0  0  0  0  0  0
    7.8618    1.7166   25.5723 C   0  0  0  0  0  0  0  0  0  0  0  0
    6.3072    0.3768   17.3417 N   0  0  0  0  0  0  0  0  0  0  0  0
    8.0155   -2.1541   22.4325 N   0  0  0  0  0  0  0  0  0  0  0  0
    7.2305   -0.6898   20.7785 N   0  0  0  0  0  0  0  0  0  0  0  0
    5.6889    2.6855   25.8468 N   0  0  0  0  0  0  0  0  0  0  0  0
    8.6625    1.0133   24.4989 N   0  3  3  0  0  0  0  0  0  0  0  0
    8.8040    1.0453   21.0951 O   0  0  0  0  0  0  0  0  0  0  0  0
    6.1335   -2.7704   21.1541 O   0  0  0  0  0  0  0  0  0  0  0  0
    6.8813    3.1663   23.9132 O   0  0  0  0  0  0  0  0  0  0  0  0
   13.4287   -2.1410   21.1078 Cl  0  0  0  0  0  0  0  0  0  0  0  0
    2.5443    3.3508   20.6368 H   0  0  0  0  0  0  0  0  0  0  0  0
    3.5189    2.1137   22.5166 H   0  0  0  0  0  0  0  0  0  0  0  0
    3.3421    2.9744   18.3363 H   0  0  0  0  0  0  0  0  0  0  0  0
    5.3131    0.4893   22.1569 H   0  0  0  0  0  0  0  0  0  0  0  0
   12.5034    0.5987   24.9736 H   0  0  0  0  0  0  0  0  0  0  0  0
   13.9926   -0.5179   23.3783 H   0  0  0  0  0  0  0  0  0  0  0  0
   10.6074   -2.0178   21.2231 H   0  0  0  0  0  0  0  0  0  0  0  0
    4.9151    1.7511   16.7471 H   0  0  0  0  0  0  0  0  0  0  0  0
    7.6455   -0.9765   18.1038 H   0  0  0  0  0  0  0  0  0  0  0  0
    9.7641   -0.1191   25.8269 H   0  0  0  0  0  0  0  0  0  0  0  0
   10.4593    1.4675   25.3674 H   0  0  0  0  0  0  0  0  0  0  0  0
    6.9018    0.3004   23.5664 H   0  0  0  0  0  0  0  0  0  0  0  0
    7.6856   -0.8508   24.6903 H   0  0  0  0  0  0  0  0  0  0  0  0
    4.6426    4.4889   25.9300 H   0  0  0  0  0  0  0  0  0  0  0  0
    4.4128    3.5297   24.4288 H   0  0  0  0  0  0  0  0  0  0  0  0
    3.6304    3.0052   25.9583 H   0  0  0  0  0  0  0  0  0  0  0  0
    7.4238    0.9391   26.2044 H   0  0  0  0  0  0  0  0  0  0  0  0
    8.5785    2.3131   26.1435 H   0  0  0  0  0  0  0  0  0  0  0  0
    8.2135   -2.9427   22.8506 H   0  0  0  0  0  0  0  0  0  0  0  0
    5.6867    2.1615   26.7173 H   0  0  0  0  0  0  0  0  0  0  0  0
    8.7938    1.7186   23.7492 H   0  0  0  0  0  0  0  0  0  0  0  0
  1  2  2  0  0  0  0
  1  3  1  0  0  0  0
  2  4  1  0  0  0  0
  3 10  2  0  0  0  0
  4 11  2  0  0  0  0
  5  6  2  0  0  0  0
  5 12  1  0  0  0  0
  6 15  1  0  0  0  0
  7 13  1  0  0  0  0
  7 15  2  0  0  0  0
  8 10  1  0  0  0  0
  8 24  2  0  0  0  0
  9 14  2  0  0  0  0
  9 24  1  0  0  0  0
 10 11  1  0  0  0  0
 11 14  1  0  0  0  0
 12 13  2  0  0  0  0
 12 19  1  0  0  0  0
 13 21  1  1  0  0  0
 14 26  1  0  0  0  0
 15 32  1  0  0  0  0
 16 21  1  6  0  0  0
 16 26  1  0  0  0  0
 16 29  2  0  0  0  0
 17 25  1  0  0  0  0
 17 26  1  0  0  0  0
 17 30  2  0  0  0  0
 18 23  1  0  0  0  0
 18 27  1  0  0  0  0
 18 31  2  0  0  0  0
 19 28  1  0  0  0  0
 20 21  1  1  0  0  0
 20 28  1  0  0  0  0
 21 25  1  6  0  0  0
 22 27  1  0  0  0  0
 23 28  1  0  0  0  0
  1 33  1  0  0  0  0
  2 34  1  0  0  0  0
  3 35  1  0  0  0  0
  4 36  1  0  0  0  0
  5 37  1  0  0  0  0
  6 38  1  0  0  0  0
  7 39  1  0  0  0  0
  8 40  1  0  0  0  0
  9 41  1  0  0  0  0
 19 42  1  0  0  0  0
 19 43  1  0  0  0  0
 20 44  1  0  0  0  0
 20 45  1  0  0  0  0
 22 46  1  0  0  0  0
 22 47  1  0  0  0  0
 22 48  1  0  0  0  0
 23 49  1  0  0  0  0
 23 50  1  0  0  0  0
 25 51  1  0  0  0  0
 27 52  1  0  0  0  0
 28 53  1  0  0  0  0
M  CHG  1  28   1
M  END
> <scaffold>
tetrahydroisoquinoline-5spiro-isoquinoline

> <compound>
VLA-MRT-a639d434-1

> <compound_smiles>
CNC(=O)CN1Cc2ccc(cc2[C@@]3(C1)C(=O)N(C(=O)N3)c4cncc5c4cccc5)Cl

> <enantiomer_smiles>
CNC(=O)C[N@]1Cc2ccc(cc2[C@@]3(C1)C(=O)N(C(=O)N3)c4cncc5c4cccc5)Cl

> <clash_score>
0

> <docking_score>
3.4028234663852886e+38

> <overlap_score>
1.0

> <MMFF_internal_energy>
152.86283878360652

> <docked_smiles>
CNC(=O)C[N@H+]1Cc2ccc(cc2[C@@]3(C1)C(=O)N(C(=O)N3)c4cncc5c4cccc5)Cl

$$$$
PET-UNK-14142a25-10_1
  -OEChem-01042202303D

 53 57  0     1  0  0  0  0  0999 V2000
    3.3444    2.6278   20.4409 C   0  0  0  0  0  0  0  0  0  0  0  0
    3.8974    1.9290   21.5048 C   0  0  0  0  0  0  0  0  0  0  0  0
    3.7877    2.4205   19.1658 C   0  0  0  0  0  0  0  0  0  0  0  0
    4.8986    1.0232   21.2985 C   0  0  0  0  0  0  0  0  0  0  0  0
   12.0781    0.0316   24.1532 C   0  0  0  0  0  0  0  0  0  0  0  0
   12.9147   -0.6032   23.2559 C   0  0  0  0  0  0  0  0  0  0  0  0
   11.0005   -1.4332   22.0435 C   0  0  0  0  0  0  0  0  0  0  0  0
    5.3288    1.2339   17.6062 C   0  0  0  0  0  0  0  0  0  0  0  0
    6.8449   -0.2893   18.3747 C   0  0  0  0  0  0  0  0  0  0  0  0
    4.8238    1.4906   18.9051 C   0  0  0  0  0  0  0  0  0  0  0  0
    5.3995    0.7732   19.9944 C   0  0  0  0  0  0  0  0  0  0  0  0
   10.7056   -0.0626   23.9890 C   0  0  0  0  0  0  0  0  0  0  0  0
   10.1421   -0.7766   22.9242 C   0  0  0  0  0  0  0  0  0  0  0  0
    6.4452   -0.1472   19.6975 C   0  0  0  0  0  0  0  0  0  0  0  0
   12.3697   -1.3298   22.2224 C   0  0  0  0  0  0  0  0  0  0  0  0
    9.9496    0.5589   24.9527 C   0  0  0  0  0  0  0  0  0  0  0  0
    8.2504    0.0168   21.4265 C   0  0  0  0  0  0  0  0  0  0  0  0
    7.2900    2.1445   26.0369 C   0  0  0  0  0  0  0  0  0  0  0  0
    8.0155   -2.1541   22.4325 C   0  0  0  0  0  0  0  0  0  0  0  0
    6.9880   -1.9367   21.3575 C   0  0  0  0  0  0  0  0  0  0  0  0
    7.8737   -0.1194   23.8825 C   0  0  0  0  0  0  0  0  0  0  0  0
    8.6253   -0.7606   22.6923 C   0  0  3  0  0  0  0  0  0  0  0  0
    6.5711    3.5767   27.9463 C   0  0  0  0  0  0  0  0  0  0  0  0
    8.0937    2.2235   24.7641 C   0  0  0  0  0  0  0  0  0  0  0  0
    6.3072    0.3768   17.3417 N   0  0  0  0  0  0  0  0  0  0  0  0
    7.2305   -0.6898   20.7785 N   0  0  0  0  0  0  0  0  0  0  0  0
    8.6625    1.0133   24.4989 N   0  0  0  0  0  0  0  0  0  0  0  0
    7.2701    3.3635   26.6994 N   0  0  0  0  0  0  0  0  0  0  0  0
   10.3233    0.7301   26.1084 O   0  0  0  0  0  0  0  0  0  0  0  0
    8.8205    1.0412   21.0776 O   0  0  0  0  0  0  0  0  0  0  0  0
    6.7292    1.1210   26.4195 O   0  0  0  0  0  0  0  0  0  0  0  0
   13.4288   -2.1465   21.1124 Cl  0  0  0  0  0  0  0  0  0  0  0  0
    2.5443    3.3508   20.6368 H   0  0  0  0  0  0  0  0  0  0  0  0
    3.5189    2.1137   22.5166 H   0  0  0  0  0  0  0  0  0  0  0  0
    3.3421    2.9744   18.3363 H   0  0  0  0  0  0  0  0  0  0  0  0
    5.3131    0.4893   22.1569 H   0  0  0  0  0  0  0  0  0  0  0  0
   12.5188    0.5961   24.9710 H   0  0  0  0  0  0  0  0  0  0  0  0
   13.9920   -0.5226   23.3817 H   0  0  0  0  0  0  0  0  0  0  0  0
   10.6143   -2.0253   21.2266 H   0  0  0  0  0  0  0  0  0  0  0  0
    4.9151    1.7511   16.7471 H   0  0  0  0  0  0  0  0  0  0  0  0
    7.6455   -0.9765   18.1038 H   0  0  0  0  0  0  0  0  0  0  0  0
    7.5128   -2.5277   23.3386 H   0  0  0  0  0  0  0  0  0  0  0  0
    8.7593   -2.9102   22.1430 H   0  0  0  0  0  0  0  0  0  0  0  0
    7.0602   -2.7255   20.5716 H   0  0  0  0  0  0  0  0  0  0  0  0
    5.9526   -1.9964   21.7706 H   0  0  0  0  0  0  0  0  0  0  0  0
    6.9217    0.3182   23.5732 H   0  0  0  0  0  0  0  0  0  0  0  0
    7.6678   -0.8543   24.6617 H   0  0  0  0  0  0  0  0  0  0  0  0
    5.5409    3.9020   27.7387 H   0  0  0  0  0  0  0  0  0  0  0  0
    6.5506    2.6385   28.5201 H   0  0  0  0  0  0  0  0  0  0  0  0
    7.0898    4.3520   28.5293 H   0  0  0  0  0  0  0  0  0  0  0  0
    7.4419    2.5111   23.9339 H   0  0  0  0  0  0  0  0  0  0  0  0
    8.8897    2.9659   24.8736 H   0  0  0  0  0  0  0  0  0  0  0  0
    7.7718    4.1449   26.2876 H   0  0  0  0  0  0  0  0  0  0  0  0
  1  2  2  0  0  0  0
  1  3  1  0  0  0  0
  2  4  1  0  0  0  0
  3 10  2  0  0  0  0
  4 11  2  0  0  0  0
  5  6  2  0  0  0  0
  5 12  1  0  0  0  0
  6 15  1  0  0  0  0
  7 13  1  0  0  0  0
  7 15  2  0  0  0  0
  8 10  1  0  0  0  0
  8 25  2  0  0  0  0
  9 14  2  0  0  0  0
  9 25  1  0  0  0  0
 10 11  1  0  0  0  0
 11 14  1  0  0  0  0
 12 13  2  0  0  0  0
 12 16  1  0  0  0  0
 13 22  1  0  0  0  0
 14 26  1  0  0  0  0
 15 32  1  0  0  0  0
 16 27  1  0  0  0  0
 16 29  2  0  0  0  0
 17 22  1  0  0  0  0
 17 26  1  0  0  0  0
 17 30  2  0  0  0  0
 18 24  1  0  0  0  0
 18 28  1  0  0  0  0
 18 31  2  0  0  0  0
 19 20  1  0  0  0  0
 19 22  1  0  0  0  0
 20 26  1  0  0  0  0
 21 22  1  0  0  0  0
 21 27  1  0  0  0  0
 23 28  1  0  0  0  0
 24 27  1  0  0  0  0
  1 33  1  0  0  0  0
  2 34  1  0  0  0  0
  3 35  1  0  0  0  0
  4 36  1  0  0  0  0
  5 37  1  0  0  0  0
  6 38  1  0  0  0  0
  7 39  1  0  0  0  0
  8 40  1  0  0  0  0
  9 41  1  0  0  0  0
 19 42  1  0  0  0  0
 19 43  1  0  0  0  0
 20 44  1  0  0  0  0
 20 45  1  0  0  0  0
 21 46  1  0  0  0  0
 21 47  1  0  0  0  0
 23 48  1  0  0  0  0
 23 49  1  0  0  0  0
 23 50  1  0  0  0  0
 24 51  1  0  0  0  0
 24 52  1  0  0  0  0
 28 53  1  0  0  0  0
M  END
> <scaffold>
tetrahydroisoquinoline-5spiro-isoquinoline

> <compound>
PET-UNK-14142a25-10

> <compound_smiles>
CNC(=O)CN1CC2(CCN(C2=O)c3cncc4c3cccc4)c5cc(ccc5C1=O)Cl

> <enantiomer_smiles>
CNC(=O)CN1C[C@]2(CCN(C2=O)c3cncc4c3cccc4)c5cc(ccc5C1=O)Cl

> <clash_score>
0

> <docking_score>
3.4028234663852886e+38

> <overlap_score>
0.9896502494812012

> <MMFF_internal_energy>
158.84807719662504

> <docked_smiles>
CNC(=O)CN1C[C@]2(CCN(C2=O)c3cncc4c3cccc4)c5cc(ccc5C1=O)Cl

$$$$
EDJ-MED-8bb691af-3_1
  -OEChem-01042202303D

 55 59  0     1  0  0  0  0  0999 V2000
    3.3444    2.6278   20.4409 C   0  0  0  0  0  0  0  0  0  0  0  0
    3.8974    1.9290   21.5048 C   0  0  0  0  0  0  0  0  0  0  0  0
    3.7877    2.4205   19.1658 C   0  0  0  0  0  0  0  0  0  0  0  0
    4.8986    1.0232   21.2985 C   0  0  0  0  0  0  0  0  0  0  0  0
   12.0781    0.0316   24.1532 C   0  0  0  0  0  0  0  0  0  0  0  0
   12.9147   -0.6032   23.2559 C   0  0  0  0  0  0  0  0  0  0  0  0
   11.0005   -1.4332   22.0435 C   0  0  0  0  0  0  0  0  0  0  0  0
    5.3288    1.2339   17.6062 C   0  0  0  0  0  0  0  0  0  0  0  0
    6.8449   -0.2893   18.3747 C   0  0  0  0  0  0  0  0  0  0  0  0
    4.8238    1.4906   18.9051 C   0  0  0  0  0  0  0  0  0  0  0  0
    5.3995    0.7732   19.9944 C   0  0  0  0  0  0  0  0  0  0  0  0
   10.7056   -0.0626   23.9890 C   0  0  0  0  0  0  0  0  0  0  0  0
   10.1421   -0.7766   22.9242 C   0  0  0  0  0  0  0  0  0  0  0  0
    6.4452   -0.1472   19.6975 C   0  0  0  0  0  0  0  0  0  0  0  0
   12.3697   -1.3298   22.2224 C   0  0  0  0  0  0  0  0  0  0  0  0
    6.9880   -1.9367   21.3575 C   0  0  0  0  0  0  0  0  0  0  0  0
    8.9556    3.4957   24.3033 C   0  0  0  0  0  0  0  0  0  0  0  0
    9.9496    0.5589   24.9527 C   0  0  0  0  0  0  0  0  0  0  0  0
    8.0155   -2.1541   22.4325 C   0  0  0  0  0  0  0  0  0  0  0  0
    8.2504    0.0168   21.4265 C   0  0  0  0  0  0  0  0  0  0  0  0
    7.8737   -0.1194   23.8825 C   0  0  0  0  0  0  0  0  0  0  0  0
    8.6253   -0.7606   22.6923 C   0  0  3  0  0  0  0  0  0  0  0  0
   10.0020    5.7244   24.0283 C   0  0  0  0  0  0  0  0  0  0  0  0
    8.7415    2.1996   23.5627 C   0  0  0  0  0  0  0  0  0  0  0  0
    6.3072    0.3768   17.3417 N   0  0  0  0  0  0  0  0  0  0  0  0
    7.2305   -0.6898   20.7785 N   0  0  0  0  0  0  0  0  0  0  0  0
    9.6699    4.4071   23.5401 N   0  0  0  0  0  0  0  0  0  0  0  0
    8.6625    1.0133   24.4989 N   0  3  3  0  0  0  0  0  0  0  0  0
    6.0928   -2.7470   21.1363 O   0  0  0  0  0  0  0  0  0  0  0  0
    8.5394    3.6989   25.4407 O   0  0  0  0  0  0  0  0  0  0  0  0
   13.4302   -2.1425   21.1107 Cl  0  0  0  0  0  0  0  0  0  0  0  0
    2.5443    3.3508   20.6368 H   0  0  0  0  0  0  0  0  0  0  0  0
    3.5189    2.1137   22.5166 H   0  0  0  0  0  0  0  0  0  0  0  0
    3.3421    2.9744   18.3363 H   0  0  0  0  0  0  0  0  0  0  0  0
    5.3131    0.4893   22.1569 H   0  0  0  0  0  0  0  0  0  0  0  0
   12.5051    0.5961   24.9736 H   0  0  0  0  0  0  0  0  0  0  0  0
   13.9932   -0.5194   23.3797 H   0  0  0  0  0  0  0  0  0  0  0  0
   10.6222   -2.0229   21.2258 H   0  0  0  0  0  0  0  0  0  0  0  0
    4.9151    1.7511   16.7471 H   0  0  0  0  0  0  0  0  0  0  0  0
    7.6455   -0.9765   18.1038 H   0  0  0  0  0  0  0  0  0  0  0  0
    9.7403   -0.1100   25.8252 H   0  0  0  0  0  0  0  0  0  0  0  0
   10.4789    1.4553   25.3645 H   0  0  0  0  0  0  0  0  0  0  0  0
    7.4880   -2.5421   23.3119 H   0  0  0  0  0  0  0  0  0  0  0  0
    8.7531   -2.8940   22.1044 H   0  0  0  0  0  0  0  0  0  0  0  0
    7.8535    1.0241   21.6751 H   0  0  0  0  0  0  0  0  0  0  0  0
    9.1187    0.1796   20.7519 H   0  0  0  0  0  0  0  0  0  0  0  0
    6.8934    0.2936   23.5792 H   0  0  0  0  0  0  0  0  0  0  0  0
    7.6897   -0.8575   24.6839 H   0  0  0  0  0  0  0  0  0  0  0  0
    9.2126    6.4333   23.7382 H   0  0  0  0  0  0  0  0  0  0  0  0
   10.0865    5.6984   25.1247 H   0  0  0  0  0  0  0  0  0  0  0  0
   10.9604    6.0453   23.5942 H   0  0  0  0  0  0  0  0  0  0  0  0
    9.5670    2.0138   22.8699 H   0  0  0  0  0  0  0  0  0  0  0  0
    7.7899    2.2217   23.0243 H   0  0  0  0  0  0  0  0  0  0  0  0
    9.9948    4.1414   22.6148 H   0  0  0  0  0  0  0  0  0  0  0  0
    8.1121    1.3483   25.3125 H   0  0  0  0  0  0  0  0  0  0  0  0
  1  2  2  0  0  0  0
  1  3  1  0  0  0  0
  2  4  1  0  0  0  0
  3 10  2  0  0  0  0
  4 11  2  0  0  0  0
  5  6  2  0  0  0  0
  5 12  1  0  0  0  0
  6 15  1  0  0  0  0
  7 13  1  0  0  0  0
  7 15  2  0  0  0  0
  8 10  1  0  0  0  0
  8 25  2  0  0  0  0
  9 14  2  0  0  0  0
  9 25  1  0  0  0  0
 10 11  1  0  0  0  0
 11 14  1  0  0  0  0
 12 13  2  0  0  0  0
 12 18  1  0  0  0  0
 13 22  1  0  0  0  0
 14 26  1  0  0  0  0
 15 31  1  0  0  0  0
 16 19  1  0  0  0  0
 16 26  1  0  0  0  0
 16 29  2  0  0  0  0
 17 24  1  0  0  0  0
 17 27  1  0  0  0  0
 17 30  2  0  0  0  0
 18 28  1  0  0  0  0
 19 22  1  0  0  0  0
 20 22  1  0  0  0  0
 20 26  1  0  0  0  0
 21 22  1  0  0  0  0
 21 28  1  0  0  0  0
 23 27  1  0  0  0  0
 24 28  1  0  0  0  0
  1 32  1  0  0  0  0
  2 33  1  0  0  0  0
  3 34  1  0  0  0  0
  4 35  1  0  0  0  0
  5 36  1  0  0  0  0
  6 37  1  0  0  0  0
  7 38  1  0  0  0  0
  8 39  1  0  0  0  0
  9 40  1  0  0  0  0
 18 41  1  0  0  0  0
 18 42  1  0  0  0  0
 19 43  1  0  0  0  0
 19 44  1  0  0  0  0
 20 45  1  0  0  0  0
 20 46  1  0  0  0  0
 21 47  1  0  0  0  0
 21 48  1  0  0  0  0
 23 49  1  0  0  0  0
 23 50  1  0  0  0  0
 23 51  1  0  0  0  0
 24 52  1  0  0  0  0
 24 53  1  0  0  0  0
 27 54  1  0  0  0  0
 28 55  1  0  0  0  0
M  CHG  1  28   1
M  END
> <scaffold>
tetrahydroisoquinoline-5spiro-isoquinoline

> <compound>
EDJ-MED-8bb691af-3

> <compound_smiles>
CNC(=O)CN1Cc2ccc(cc2C3(C1)CC(=O)N(C3)c4cncc5c4cccc5)Cl

> <enantiomer_smiles>
CNC(=O)C[N@@]1Cc2ccc(cc2[C@]3(C1)CC(=O)N(C3)c4cncc5c4cccc5)Cl

> <clash_score>
0

> <docking_score>
3.4028234663852886e+38

> <overlap_score>
0.9774990677833557

> <MMFF_internal_energy>
155.68952239429532

> <docked_smiles>
CNC(=O)C[N@@H+]1Cc2ccc(cc2[C@]3(C1)CC(=O)N(C3)c4cncc5c4cccc5)Cl

$$$$
EDJ-MED-7587a9ee-1_1
  -OEChem-01042202303D

 51 55  0     1  0  0  0  0  0999 V2000
    3.3444    2.6278   20.4409 C   0  0  0  0  0  0  0  0  0  0  0  0
    3.8974    1.9290   21.5048 C   0  0  0  0  0  0  0  0  0  0  0  0
    3.7877    2.4205   19.1658 C   0  0  0  0  0  0  0  0  0  0  0  0
    4.8986    1.0232   21.2985 C   0  0  0  0  0  0  0  0  0  0  0  0
   12.0781    0.0316   24.1532 C   0  0  0  0  0  0  0  0  0  0  0  0
   12.9147   -0.6032   23.2559 C   0  0  0  0  0  0  0  0  0  0  0  0
   11.0005   -1.4332   22.0435 C   0  0  0  0  0  0  0  0  0  0  0  0
    5.3288    1.2339   17.6062 C   0  0  0  0  0  0  0  0  0  0  0  0
    6.8449   -0.2893   18.3747 C   0  0  0  0  0  0  0  0  0  0  0  0
    4.8238    1.4906   18.9051 C   0  0  0  0  0  0  0  0  0  0  0  0
    5.3995    0.7732   19.9944 C   0  0  0  0  0  0  0  0  0  0  0  0
   10.7056   -0.0626   23.9890 C   0  0  0  0  0  0  0  0  0  0  0  0
   10.1421   -0.7766   22.9242 C   0  0  0  0  0  0  0  0  0  0  0  0
    6.4452   -0.1472   19.6975 C   0  0  0  0  0  0  0  0  0  0  0  0
   12.3697   -1.3298   22.2224 C   0  0  0  0  0  0  0  0  0  0  0  0
    8.2504    0.0168   21.4265 C   0  0  0  0  0  0  0  0  0  0  0  0
    6.9880   -1.9367   21.3575 C   0  0  0  0  0  0  0  0  0  0  0  0
    9.9496    0.5589   24.9527 C   0  0  0  0  0  0  0  0  0  0  0  0
    7.8737   -0.1194   23.8825 C   0  0  0  0  0  0  0  0  0  0  0  0
    8.6253   -0.7606   22.6923 C   0  0  3  0  0  0  0  0  0  0  0  0
    8.2605   -3.3008   23.1249 C   0  0  0  0  0  0  0  0  0  0  0  0
    7.6222    0.9003   26.9415 C   0  0  0  0  0  0  0  0  0  0  0  0
    6.3072    0.3768   17.3417 N   0  0  0  0  0  0  0  0  0  0  0  0
    7.2305   -0.6898   20.7785 N   0  0  0  0  0  0  0  0  0  0  0  0
    8.0155   -2.1541   22.4325 N   0  0  0  0  0  0  0  0  0  0  0  0
    8.6625    1.0133   24.4989 N   0  0  3  0  0  0  0  0  0  0  0  0
    8.8045    1.0418   21.0871 O   0  0  0  0  0  0  0  0  0  0  0  0
    6.1139   -2.7504   21.1411 O   0  0  0  0  0  0  0  0  0  0  0  0
    6.4474    2.2390   25.0297 O   0  0  0  0  0  0  0  0  0  0  0  0
    8.6251    3.1093   25.9709 O   0  0  0  0  0  0  0  0  0  0  0  0
    7.7711    2.0134   25.5679 S   0  0  0  0  0  0  0  0  0  0  0  0
   13.4279   -2.1414   21.1075 Cl  0  0  0  0  0  0  0  0  0  0  0  0
    2.5443    3.3508   20.6368 H   0  0  0  0  0  0  0  0  0  0  0  0
    3.5189    2.1137   22.5166 H   0  0  0  0  0  0  0  0  0  0  0  0
    3.3421    2.9744   18.3363 H   0  0  0  0  0  0  0  0  0  0  0  0
    5.3131    0.4893   22.1569 H   0  0  0  0  0  0  0  0  0  0  0  0
   12.5037    0.6006   24.9720 H   0  0  0  0  0  0  0  0  0  0  0  0
   13.9925   -0.5155   23.3770 H   0  0  0  0  0  0  0  0  0  0  0  0
   10.6064   -2.0209   21.2257 H   0  0  0  0  0  0  0  0  0  0  0  0
    4.9151    1.7511   16.7471 H   0  0  0  0  0  0  0  0  0  0  0  0
    7.6455   -0.9765   18.1038 H   0  0  0  0  0  0  0  0  0  0  0  0
    9.7894   -0.1169   25.8341 H   0  0  0  0  0  0  0  0  0  0  0  0
   10.4831    1.4577   25.3596 H   0  0  0  0  0  0  0  0  0  0  0  0
    6.8963    0.2740   23.5515 H   0  0  0  0  0  0  0  0  0  0  0  0
    7.6768   -0.8555   24.6818 H   0  0  0  0  0  0  0  0  0  0  0  0
    9.0283   -3.8853   22.5969 H   0  0  0  0  0  0  0  0  0  0  0  0
    8.6206   -3.0489   24.1333 H   0  0  0  0  0  0  0  0  0  0  0  0
    7.3374   -3.8940   23.2028 H   0  0  0  0  0  0  0  0  0  0  0  0
    7.0753    1.4073   27.7380 H   0  0  0  0  0  0  0  0  0  0  0  0
    7.0795    0.0140   26.6093 H   0  0  0  0  0  0  0  0  0  0  0  0
    8.6249    0.6315   27.2771 H   0  0  0  0  0  0  0  0  0  0  0  0
  1  2  2  0  0  0  0
  1  3  1  0  0  0  0
  2  4  1  0  0  0  0
  3 10  2  0  0  0  0
  4 11  2  0  0  0  0
  5  6  2  0  0  0  0
  5 12  1  0  0  0  0
  6 15  1  0  0  0  0
  7 13  1  0  0  0  0
  7 15  2  0  0  0  0
  8 10  1  0  0  0  0
  8 23  2  0  0  0  0
  9 14  2  0  0  0  0
  9 23  1  0  0  0  0
 10 11  1  0  0  0  0
 11 14  1  0  0  0  0
 12 13  2  0  0  0  0
 12 18  1  0  0  0  0
 13 20  1  0  0  0  0
 14 24  1  0  0  0  0
 15 32  1  0  0  0  0
 16 20  1  0  0  0  0
 16 24  1  0  0  0  0
 16 27  2  0  0  0  0
 17 24  1  0  0  0  0
 17 25  1  0  0  0  0
 17 28  2  0  0  0  0
 18 26  1  0  0  0  0
 19 20  1  0  0  0  0
 19 26  1  0  0  0  0
 20 25  1  0  0  0  0
 21 25  1  0  0  0  0
 22 31  1  0  0  0  0
 26 31  1  0  0  0  0
 29 31  2  0  0  0  0
 30 31  2  0  0  0  0
  1 33  1  0  0  0  0
  2 34  1  0  0  0  0
  3 35  1  0  0  0  0
  4 36  1  0  0  0  0
  5 37  1  0  0  0  0
  6 38  1  0  0  0  0
  7 39  1  0  0  0  0
  8 40  1  0  0  0  0
  9 41  1  0  0  0  0
 18 42  1  0  0  0  0
 18 43  1  0  0  0  0
 19 44  1  0  0  0  0
 19 45  1  0  0  0  0
 21 46  1  0  0  0  0
 21 47  1  0  0  0  0
 21 48  1  0  0  0  0
 22 49  1  0  0  0  0
 22 50  1  0  0  0  0
 22 51  1  0  0  0  0
M  END
> <scaffold>
tetrahydroisoquinoline-5spiro-isoquinoline

> <compound>
EDJ-MED-7587a9ee-1

> <compound_smiles>
CN1C(=O)N(C(=O)C12CN(Cc3c2cc(cc3)Cl)S(=O)(=O)C)c4cncc5c4cccc5

> <enantiomer_smiles>
CN1C(=O)N(C(=O)[C@@]12C[N@](Cc3c2cc(cc3)Cl)S(=O)(=O)C)c4cncc5c4cccc5

> <clash_score>
0

> <docking_score>
3.4028234663852886e+38

> <overlap_score>
1.0128945112228394

> <MMFF_internal_energy>
68.32819707050503

> <docked_smiles>
CN1C(=O)N(C(=O)[C@@]12C[N@](Cc3c2cc(cc3)Cl)S(=O)(=O)C)c4cncc5c4cccc5

$$$$
VLA-MRT-8c78ee15-4_1
  -OEChem-01042202303D

 50 54  0     1  0  0  0  0  0999 V2000
    3.3444    2.6278   20.4409 C   0  0  0  0  0  0  0  0  0  0  0  0
    3.8974    1.9290   21.5048 C   0  0  0  0  0  0  0  0  0  0  0  0
    3.7877    2.4205   19.1658 C   0  0  0  0  0  0  0  0  0  0  0  0
    4.8986    1.0232   21.2985 C   0  0  0  0  0  0  0  0  0  0  0  0
   12.0781    0.0316   24.1532 C   0  0  0  0  0  0  0  0  0  0  0  0
   12.9147   -0.6032   23.2559 C   0  0  0  0  0  0  0  0  0  0  0  0
   11.0005   -1.4332   22.0435 C   0  0  0  0  0  0  0  0  0  0  0  0
    5.3288    1.2339   17.6062 C   0  0  0  0  0  0  0  0  0  0  0  0
    6.8449   -0.2893   18.3747 C   0  0  0  0  0  0  0  0  0  0  0  0
    4.8238    1.4906   18.9051 C   0  0  0  0  0  0  0  0  0  0  0  0
    5.3995    0.7732   19.9944 C   0  0  0  0  0  0  0  0  0  0  0  0
   10.7056   -0.0626   23.9890 C   0  0  0  0  0  0  0  0  0  0  0  0
   10.1421   -0.7766   22.9242 C   0  0  0  0  0  0  0  0  0  0  0  0
    6.4452   -0.1472   19.6975 C   0  0  0  0  0  0  0  0  0  0  0  0
   12.3697   -1.3298   22.2224 C   0  0  0  0  0  0  0  0  0  0  0  0
    8.2504    0.0168   21.4265 C   0  0  0  0  0  0  0  0  0  0  0  0
    6.9880   -1.9367   21.3575 C   0  0  0  0  0  0  0  0  0  0  0  0
    6.7794    2.5972   24.9971 C   0  0  0  0  0  0  0  0  0  0  0  0
    9.9496    0.5589   24.9527 C   0  0  0  0  0  0  0  0  0  0  0  0
    7.8737   -0.1194   23.8825 C   0  0  0  0  0  0  0  0  0  0  0  0
    8.6253   -0.7606   22.6923 C   0  0  1  0  0  0  0  0  0  0  0  0
    7.8606    1.7190   25.5699 C   0  0  0  0  0  0  0  0  0  0  0  0
    6.3072    0.3768   17.3417 N   0  0  0  0  0  0  0  0  0  0  0  0
    8.0155   -2.1541   22.4325 N   0  0  0  0  0  0  0  0  0  0  0  0
    7.2305   -0.6898   20.7785 N   0  0  0  0  0  0  0  0  0  0  0  0
    5.6852    2.6876   25.8301 N   0  0  0  0  0  0  0  0  0  0  0  0
    8.6625    1.0133   24.4989 N   0  3  3  0  0  0  0  0  0  0  0  0
    8.7750    1.0691   21.1220 O   0  0  0  0  0  0  0  0  0  0  0  0
    6.1667   -2.7941   21.1181 O   0  0  0  0  0  0  0  0  0  0  0  0
    6.8636    3.1679   23.9136 O   0  0  0  0  0  0  0  0  0  0  0  0
   13.4289   -2.1406   21.1079 Cl  0  0  0  0  0  0  0  0  0  0  0  0
    2.5443    3.3508   20.6368 H   0  0  0  0  0  0  0  0  0  0  0  0
    3.5189    2.1137   22.5166 H   0  0  0  0  0  0  0  0  0  0  0  0
    3.3421    2.9744   18.3363 H   0  0  0  0  0  0  0  0  0  0  0  0
    5.3131    0.4893   22.1569 H   0  0  0  0  0  0  0  0  0  0  0  0
   12.5036    0.5983   24.9737 H   0  0  0  0  0  0  0  0  0  0  0  0
   13.9925   -0.5165   23.3776 H   0  0  0  0  0  0  0  0  0  0  0  0
   10.6065   -2.0180   21.2235 H   0  0  0  0  0  0  0  0  0  0  0  0
    4.9151    1.7511   16.7471 H   0  0  0  0  0  0  0  0  0  0  0  0
    7.6455   -0.9765   18.1038 H   0  0  0  0  0  0  0  0  0  0  0  0
    9.7624   -0.1217   25.8233 H   0  0  0  0  0  0  0  0  0  0  0  0
   10.4587    1.4658   25.3695 H   0  0  0  0  0  0  0  0  0  0  0  0
    6.8927    0.2858   23.5681 H   0  0  0  0  0  0  0  0  0  0  0  0
    7.6734   -0.8524   24.6878 H   0  0  0  0  0  0  0  0  0  0  0  0
    7.4252    0.9404   26.2024 H   0  0  0  0  0  0  0  0  0  0  0  0
    8.5755    2.3177   26.1411 H   0  0  0  0  0  0  0  0  0  0  0  0
    8.2310   -2.9438   22.8428 H   0  0  0  0  0  0  0  0  0  0  0  0
    5.6634    2.1974   26.7181 H   0  0  0  0  0  0  0  0  0  0  0  0
    4.8676    3.2409   25.5938 H   0  0  0  0  0  0  0  0  0  0  0  0
    8.7918    1.7158   23.7456 H   0  0  0  0  0  0  0  0  0  0  0  0
  1  2  2  0  0  0  0
  1  3  1  0  0  0  0
  2  4  1  0  0  0  0
  3 10  2  0  0  0  0
  4 11  2  0  0  0  0
  5  6  2  0  0  0  0
  5 12  1  0  0  0  0
  6 15  1  0  0  0  0
  7 13  1  0  0  0  0
  7 15  2  0  0  0  0
  8 10  1  0  0  0  0
  8 23  2  0  0  0  0
  9 14  2  0  0  0  0
  9 23  1  0  0  0  0
 10 11  1  0  0  0  0
 11 14  1  0  0  0  0
 12 13  2  0  0  0  0
 12 19  1  0  0  0  0
 13 21  1  1  0  0  0
 14 25  1  0  0  0  0
 15 31  1  0  0  0  0
 16 21  1  6  0  0  0
 16 25  1  0  0  0  0
 16 28  2  0  0  0  0
 17 24  1  0  0  0  0
 17 25  1  0  0  0  0
 17 29  2  0  0  0  0
 18 22  1  0  0  0  0
 18 26  1  0  0  0  0
 18 30  2  0  0  0  0
 19 27  1  0  0  0  0
 20 21  1  6  0  0  0
 20 27  1  0  0  0  0
 21 24  1  1  0  0  0
 22 27  1  0  0  0  0
  1 32  1  0  0  0  0
  2 33  1  0  0  0  0
  3 34  1  0  0  0  0
  4 35  1  0  0  0  0
  5 36  1  0  0  0  0
  6 37  1  0  0  0  0
  7 38  1  0  0  0  0
  8 39  1  0  0  0  0
  9 40  1  0  0  0  0
 19 41  1  0  0  0  0
 19 42  1  0  0  0  0
 20 43  1  0  0  0  0
 20 44  1  0  0  0  0
 22 45  1  0  0  0  0
 22 46  1  0  0  0  0
 24 47  1  0  0  0  0
 26 48  1  0  0  0  0
 26 49  1  0  0  0  0
 27 50  1  0  0  0  0
M  CHG  1  27   1
M  END
> <scaffold>
tetrahydroisoquinoline-5spiro-isoquinoline

> <compound>
VLA-MRT-8c78ee15-4

> <compound_smiles>
c1ccc2c(c1)cncc2N3C(=O)[C@]4(CN(Cc5c4cc(cc5)Cl)CC(=O)N)NC3=O

> <enantiomer_smiles>
c1ccc2c(c1)cncc2N3C(=O)[C@]4(C[N@@](Cc5c4cc(cc5)Cl)CC(=O)N)NC3=O

> <clash_score>
0

> <docking_score>
3.4028234663852886e+38

> <overlap_score>
1.0

> <MMFF_internal_energy>
150.89415214975912

> <docked_smiles>
c1ccc2c(c1)cncc2N3C(=O)[C@]4(C[N@H+](Cc5c4cc(cc5)Cl)CC(=O)N)NC3=O

$$$$
EDJ-MED-3656d29d-1_1
  -OEChem-01042202303D

 59 63  0     1  0  0  0  0  0999 V2000
    3.3444    2.6278   20.4409 C   0  0  0  0  0  0  0  0  0  0  0  0
    3.7877    2.4205   19.1658 C   0  0  0  0  0  0  0  0  0  0  0  0
   12.0781    0.0316   24.1532 C   0  0  0  0  0  0  0  0  0  0  0  0
    3.8974    1.9290   21.5048 C   0  0  0  0  0  0  0  0  0  0  0  0
   12.9147   -0.6032   23.2559 C   0  0  0  0  0  0  0  0  0  0  0  0
   11.0005   -1.4332   22.0435 C   0  0  0  0  0  0  0  0  0  0  0  0
    5.3288    1.2339   17.6062 C   0  0  0  0  0  0  0  0  0  0  0  0
    6.8449   -0.2893   18.3747 C   0  0  0  0  0  0  0  0  0  0  0  0
    4.8238    1.4906   18.9051 C   0  0  0  0  0  0  0  0  0  0  0  0
    5.3995    0.7732   19.9944 C   0  0  0  0  0  0  0  0  0  0  0  0
   10.7056   -0.0626   23.9890 C   0  0  0  0  0  0  0  0  0  0  0  0
   10.1421   -0.7766   22.9242 C   0  0  0  0  0  0  0  0  0  0  0  0
    4.8986    1.0232   21.2985 C   0  0  0  0  0  0  0  0  0  0  0  0
    6.4452   -0.1472   19.6975 C   0  0  0  0  0  0  0  0  0  0  0  0
   12.3697   -1.3298   22.2224 C   0  0  0  0  0  0  0  0  0  0  0  0
    6.7884    2.6073   24.9976 C   0  0  0  0  0  0  0  0  0  0  0  0
    9.9496    0.5589   24.9527 C   0  0  0  0  0  0  0  0  0  0  0  0
    8.0155   -2.1541   22.4325 C   0  0  0  0  0  0  0  0  0  0  0  0
    6.9880   -1.9367   21.3575 C   0  0  0  0  0  0  0  0  0  0  0  0
    8.2504    0.0168   21.4265 C   0  0  0  0  0  0  0  0  0  0  0  0
    7.8737   -0.1194   23.8825 C   0  0  0  0  0  0  0  0  0  0  0  0
    8.6253   -0.7606   22.6923 C   0  0  3  0  0  0  0  0  0  0  0  0
    5.4174    0.3277   22.5244 C   0  0  0  0  0  0  0  0  0  0  0  0
    4.5205    3.4657   25.5050 C   0  0  0  0  0  0  0  0  0  0  0  0
    7.8633    1.7189   25.5717 C   0  0  0  0  0  0  0  0  0  0  0  0
    6.3072    0.3768   17.3417 N   0  0  0  0  0  0  0  0  0  0  0  0
    7.2305   -0.6898   20.7785 N   0  0  3  0  0  0  0  0  0  0  0  0
    5.6836    2.6762   25.8331 N   0  0  0  0  0  0  0  0  0  0  0  0
    8.6625    1.0133   24.4989 N   0  3  3  0  0  0  0  0  0  0  0  0
    6.8985    3.1896   23.9219 O   0  0  0  0  0  0  0  0  0  0  0  0
   13.4303   -2.1403   21.1092 Cl  0  0  0  0  0  0  0  0  0  0  0  0
    2.5428    3.3494   20.6363 H   0  0  0  0  0  0  0  0  0  0  0  0
    3.3416    2.9743   18.3364 H   0  0  0  0  0  0  0  0  0  0  0  0
   12.5050    0.5906   24.9772 H   0  0  0  0  0  0  0  0  0  0  0  0
    3.5095    2.1238   22.5125 H   0  0  0  0  0  0  0  0  0  0  0  0
   13.9932   -0.5232   23.3823 H   0  0  0  0  0  0  0  0  0  0  0  0
   10.6229   -2.0198   21.2237 H   0  0  0  0  0  0  0  0  0  0  0  0
    4.9145    1.7509   16.7471 H   0  0  0  0  0  0  0  0  0  0  0  0
    7.6462   -0.9753   18.1026 H   0  0  0  0  0  0  0  0  0  0  0  0
    9.7583   -0.1265   25.8154 H   0  0  0  0  0  0  0  0  0  0  0  0
   10.4558    1.4632   25.3721 H   0  0  0  0  0  0  0  0  0  0  0  0
    7.5782   -2.6111   23.3299 H   0  0  0  0  0  0  0  0  0  0  0  0
    8.7852   -2.8437   22.0563 H   0  0  0  0  0  0  0  0  0  0  0  0
    7.0324   -2.7729   20.6123 H   0  0  0  0  0  0  0  0  0  0  0  0
    5.9540   -1.9853   21.7846 H   0  0  0  0  0  0  0  0  0  0  0  0
    7.9616    1.0716   21.6580 H   0  0  0  0  0  0  0  0  0  0  0  0
    9.1286    0.1009   20.7425 H   0  0  0  0  0  0  0  0  0  0  0  0
    6.9040    0.3024   23.5623 H   0  0  0  0  0  0  0  0  0  0  0  0
    7.6695   -0.8507   24.6870 H   0  0  0  0  0  0  0  0  0  0  0  0
    4.8458   -0.5878   22.7071 H   0  0  0  0  0  0  0  0  0  0  0  0
    6.4765    0.0680   22.4206 H   0  0  0  0  0  0  0  0  0  0  0  0
    5.3293    0.9798   23.4004 H   0  0  0  0  0  0  0  0  0  0  0  0
    4.6298    4.4745   25.9296 H   0  0  0  0  0  0  0  0  0  0  0  0
    4.4224    3.5369   24.4117 H   0  0  0  0  0  0  0  0  0  0  0  0
    3.6228    2.9872   25.9233 H   0  0  0  0  0  0  0  0  0  0  0  0
    7.4202    0.9307   26.1867 H   0  0  0  0  0  0  0  0  0  0  0  0
    8.5706    2.3094   26.1607 H   0  0  0  0  0  0  0  0  0  0  0  0
    5.6724    2.1394   26.6956 H   0  0  0  0  0  0  0  0  0  0  0  0
    8.7953    1.7204   23.7530 H   0  0  0  0  0  0  0  0  0  0  0  0
  1  2  2  0  0  0  0
  1  4  1  0  0  0  0
  2  9  1  0  0  0  0
  3  5  2  0  0  0  0
  3 11  1  0  0  0  0
  4 13  2  0  0  0  0
  5 15  1  0  0  0  0
  6 12  1  0  0  0  0
  6 15  2  0  0  0  0
  7  9  2  0  0  0  0
  7 26  1  0  0  0  0
  8 14  1  0  0  0  0
  8 26  2  0  0  0  0
  9 10  1  0  0  0  0
 10 13  1  0  0  0  0
 10 14  2  0  0  0  0
 11 12  2  0  0  0  0
 11 17  1  0  0  0  0
 12 22  1  0  0  0  0
 13 23  1  0  0  0  0
 14 27  1  0  0  0  0
 15 31  1  0  0  0  0
 16 25  1  0  0  0  0
 16 28  1  0  0  0  0
 16 30  2  0  0  0  0
 17 29  1  0  0  0  0
 18 19  1  0  0  0  0
 18 22  1  0  0  0  0
 19 27  1  0  0  0  0
 20 22  1  0  0  0  0
 20 27  1  0  0  0  0
 21 22  1  0  0  0  0
 21 29  1  0  0  0  0
 24 28  1  0  0  0  0
 25 29  1  0  0  0  0
  1 32  1  0  0  0  0
  2 33  1  0  0  0  0
  3 34  1  0  0  0  0
  4 35  1  0  0  0  0
  5 36  1  0  0  0  0
  6 37  1  0  0  0  0
  7 38  1  0  0  0  0
  8 39  1  0  0  0  0
 17 40  1  0  0  0  0
 17 41  1  0  0  0  0
 18 42  1  0  0  0  0
 18 43  1  0  0  0  0
 19 44  1  0  0  0  0
 19 45  1  0  0  0  0
 20 46  1  0  0  0  0
 20 47  1  0  0  0  0
 21 48  1  0  0  0  0
 21 49  1  0  0  0  0
 23 50  1  0  0  0  0
 23 51  1  0  0  0  0
 23 52  1  0  0  0  0
 24 53  1  0  0  0  0
 24 54  1  0  0  0  0
 24 55  1  0  0  0  0
 25 56  1  0  0  0  0
 25 57  1  0  0  0  0
 28 58  1  0  0  0  0
 29 59  1  0  0  0  0
M  CHG  1  29   1
M  END
> <scaffold>
tetrahydroisoquinoline-5spiro-isoquinoline

> <compound>
EDJ-MED-3656d29d-1

> <compound_smiles>
Cc1cccc2c1c(cnc2)N3CCC4(C3)CN(Cc5c4cc(cc5)Cl)CC(=O)NC

> <enantiomer_smiles>
Cc1cccc2c1c(cnc2)N3CC[C@]4(C3)C[N@](Cc5c4cc(cc5)Cl)CC(=O)NC

> <clash_score>
0

> <docking_score>
3.4028234663852886e+38

> <overlap_score>
0.9601595401763916

> <MMFF_internal_energy>
273.6595129112053

> <docked_smiles>
Cc1cccc2c1c(cnc2)N3CC[C@]4(C3)C[N@H+](Cc5c4cc(cc5)Cl)CC(=O)NC

$$$$
EDJ-MED-8bb691af-9_1
  -OEChem-01042202303D

 53 57  0     1  0  0  0  0  0999 V2000
    3.3444    2.6278   20.4409 C   0  0  0  0  0  0  0  0  0  0  0  0
    3.8974    1.9290   21.5048 C   0  0  0  0  0  0  0  0  0  0  0  0
    3.7877    2.4205   19.1658 C   0  0  0  0  0  0  0  0  0  0  0  0
    4.8986    1.0232   21.2985 C   0  0  0  0  0  0  0  0  0  0  0  0
   12.0781    0.0316   24.1532 C   0  0  0  0  0  0  0  0  0  0  0  0
   12.9147   -0.6032   23.2559 C   0  0  0  0  0  0  0  0  0  0  0  0
   11.0005   -1.4332   22.0435 C   0  0  0  0  0  0  0  0  0  0  0  0
    5.3288    1.2339   17.6062 C   0  0  0  0  0  0  0  0  0  0  0  0
    6.8449   -0.2893   18.3747 C   0  0  0  0  0  0  0  0  0  0  0  0
    4.8238    1.4906   18.9051 C   0  0  0  0  0  0  0  0  0  0  0  0
    5.3995    0.7732   19.9944 C   0  0  0  0  0  0  0  0  0  0  0  0
   10.7056   -0.0626   23.9890 C   0  0  0  0  0  0  0  0  0  0  0  0
   10.1421   -0.7766   22.9242 C   0  0  0  0  0  0  0  0  0  0  0  0
    6.4452   -0.1472   19.6975 C   0  0  0  0  0  0  0  0  0  0  0  0
   12.3697   -1.3298   22.2224 C   0  0  0  0  0  0  0  0  0  0  0  0
    9.9496    0.5589   24.9527 C   0  0  0  0  0  0  0  0  0  0  0  0
    6.9880   -1.9367   21.3575 C   0  0  0  0  0  0  0  0  0  0  0  0
    7.2808    2.1440   26.0389 C   0  0  0  0  0  0  0  0  0  0  0  0
    8.0155   -2.1541   22.4325 C   0  0  0  0  0  0  0  0  0  0  0  0
    8.2504    0.0168   21.4265 C   0  0  0  0  0  0  0  0  0  0  0  0
    7.8737   -0.1194   23.8825 C   0  0  0  0  0  0  0  0  0  0  0  0
    8.6253   -0.7606   22.6923 C   0  0  3  0  0  0  0  0  0  0  0  0
    6.5472    3.5768   27.9423 C   0  0  0  0  0  0  0  0  0  0  0  0
    8.0904    2.2239   24.7699 C   0  0  0  0  0  0  0  0  0  0  0  0
    6.3072    0.3768   17.3417 N   0  0  0  0  0  0  0  0  0  0  0  0
    7.2305   -0.6898   20.7785 N   0  0  0  0  0  0  0  0  0  0  0  0
    8.6625    1.0133   24.4989 N   0  0  0  0  0  0  0  0  0  0  0  0
    7.2530    3.3640   26.6992 N   0  0  0  0  0  0  0  0  0  0  0  0
   10.3239    0.7298   26.1097 O   0  0  0  0  0  0  0  0  0  0  0  0
    6.0914   -2.7476   21.1337 O   0  0  0  0  0  0  0  0  0  0  0  0
    6.7221    1.1191   26.4207 O   0  0  0  0  0  0  0  0  0  0  0  0
   13.4295   -2.1468   21.1133 Cl  0  0  0  0  0  0  0  0  0  0  0  0
    2.5443    3.3508   20.6368 H   0  0  0  0  0  0  0  0  0  0  0  0
    3.5189    2.1137   22.5166 H   0  0  0  0  0  0  0  0  0  0  0  0
    3.3421    2.9744   18.3363 H   0  0  0  0  0  0  0  0  0  0  0  0
    5.3131    0.4893   22.1569 H   0  0  0  0  0  0  0  0  0  0  0  0
   12.5200    0.5949   24.9709 H   0  0  0  0  0  0  0  0  0  0  0  0
   13.9923   -0.5224   23.3817 H   0  0  0  0  0  0  0  0  0  0  0  0
   10.6201   -2.0255   21.2268 H   0  0  0  0  0  0  0  0  0  0  0  0
    4.9151    1.7511   16.7471 H   0  0  0  0  0  0  0  0  0  0  0  0
    7.6455   -0.9765   18.1038 H   0  0  0  0  0  0  0  0  0  0  0  0
    7.4910   -2.5409   23.3171 H   0  0  0  0  0  0  0  0  0  0  0  0
    8.7531   -2.8975   22.1046 H   0  0  0  0  0  0  0  0  0  0  0  0
    7.8519    1.0244   21.6800 H   0  0  0  0  0  0  0  0  0  0  0  0
    9.1194    0.1899   20.7521 H   0  0  0  0  0  0  0  0  0  0  0  0
    6.9241    0.3158   23.5684 H   0  0  0  0  0  0  0  0  0  0  0  0
    7.6801   -0.8503   24.6665 H   0  0  0  0  0  0  0  0  0  0  0  0
    5.5168    3.8977   27.7292 H   0  0  0  0  0  0  0  0  0  0  0  0
    6.5275    2.6395   28.5177 H   0  0  0  0  0  0  0  0  0  0  0  0
    7.0601    4.3550   28.5265 H   0  0  0  0  0  0  0  0  0  0  0  0
    7.4415    2.5075   23.9361 H   0  0  0  0  0  0  0  0  0  0  0  0
    8.8830    2.9695   24.8820 H   0  0  0  0  0  0  0  0  0  0  0  0
    7.7538    4.1467   26.2885 H   0  0  0  0  0  0  0  0  0  0  0  0
  1  2  2  0  0  0  0
  1  3  1  0  0  0  0
  2  4  1  0  0  0  0
  3 10  2  0  0  0  0
  4 11  2  0  0  0  0
  5  6  2  0  0  0  0
  5 12  1  0  0  0  0
  6 15  1  0  0  0  0
  7 13  1  0  0  0  0
  7 15  2  0  0  0  0
  8 10  1  0  0  0  0
  8 25  2  0  0  0  0
  9 14  2  0  0  0  0
  9 25  1  0  0  0  0
 10 11  1  0  0  0  0
 11 14  1  0  0  0  0
 12 13  2  0  0  0  0
 12 16  1  0  0  0  0
 13 22  1  0  0  0  0
 14 26  1  0  0  0  0
 15 32  1  0  0  0  0
 16 27  1  0  0  0  0
 16 29  2  0  0  0  0
 17 19  1  0  0  0  0
 17 26  1  0  0  0  0
 17 30  2  0  0  0  0
 18 24  1  0  0  0  0
 18 28  1  0  0  0  0
 18 31  2  0  0  0  0
 19 22  1  0  0  0  0
 20 22  1  0  0  0  0
 20 26  1  0  0  0  0
 21 22  1  0  0  0  0
 21 27  1  0  0  0  0
 23 28  1  0  0  0  0
 24 27  1  0  0  0  0
  1 33  1  0  0  0  0
  2 34  1  0  0  0  0
  3 35  1  0  0  0  0
  4 36  1  0  0  0  0
  5 37  1  0  0  0  0
  6 38  1  0  0  0  0
  7 39  1  0  0  0  0
  8 40  1  0  0  0  0
  9 41  1  0  0  0  0
 19 42  1  0  0  0  0
 19 43  1  0  0  0  0
 20 44  1  0  0  0  0
 20 45  1  0  0  0  0
 21 46  1  0  0  0  0
 21 47  1  0  0  0  0
 23 48  1  0  0  0  0
 23 49  1  0  0  0  0
 23 50  1  0  0  0  0
 24 51  1  0  0  0  0
 24 52  1  0  0  0  0
 28 53  1  0  0  0  0
M  END
> <scaffold>
tetrahydroisoquinoline-5spiro-isoquinoline

> <compound>
EDJ-MED-8bb691af-9

> <compound_smiles>
CNC(=O)CN1CC2(CC(=O)N(C2)c3cncc4c3cccc4)c5cc(ccc5C1=O)Cl

> <enantiomer_smiles>
CNC(=O)CN1C[C@]2(CC(=O)N(C2)c3cncc4c3cccc4)c5cc(ccc5C1=O)Cl

> <clash_score>
0

> <docking_score>
3.4028234663852886e+38

> <overlap_score>
0.988467812538147

> <MMFF_internal_energy>
146.7513723926401

> <docked_smiles>
CNC(=O)CN1C[C@]2(CC(=O)N(C2)c3cncc4c3cccc4)c5cc(ccc5C1=O)Cl

$$$$
MAT-POS-2e8b2191-8_1
  -OEChem-01042202303D

 51 55  0     1  0  0  0  0  0999 V2000
    3.3444    2.6278   20.4409 C   0  0  0  0  0  0  0  0  0  0  0  0
    3.8974    1.9290   21.5048 C   0  0  0  0  0  0  0  0  0  0  0  0
    3.7877    2.4205   19.1658 C   0  0  0  0  0  0  0  0  0  0  0  0
    4.8986    1.0232   21.2985 C   0  0  0  0  0  0  0  0  0  0  0  0
   12.0781    0.0316   24.1532 C   0  0  0  0  0  0  0  0  0  0  0  0
   12.9147   -0.6032   23.2559 C   0  0  0  0  0  0  0  0  0  0  0  0
   11.0005   -1.4332   22.0435 C   0  0  0  0  0  0  0  0  0  0  0  0
    5.3288    1.2339   17.6062 C   0  0  0  0  0  0  0  0  0  0  0  0
    6.8449   -0.2893   18.3747 C   0  0  0  0  0  0  0  0  0  0  0  0
    4.8238    1.4906   18.9051 C   0  0  0  0  0  0  0  0  0  0  0  0
    5.3995    0.7732   19.9944 C   0  0  0  0  0  0  0  0  0  0  0  0
   10.7056   -0.0626   23.9890 C   0  0  0  0  0  0  0  0  0  0  0  0
   10.1421   -0.7766   22.9242 C   0  0  0  0  0  0  0  0  0  0  0  0
    6.4452   -0.1472   19.6975 C   0  0  0  0  0  0  0  0  0  0  0  0
   12.3697   -1.3298   22.2224 C   0  0  0  0  0  0  0  0  0  0  0  0
    8.2504    0.0168   21.4265 C   0  0  0  0  0  0  0  0  0  0  0  0
    6.9880   -1.9367   21.3575 C   0  0  0  0  0  0  0  0  0  0  0  0
    9.9496    0.5589   24.9527 C   0  0  0  0  0  0  0  0  0  0  0  0
    7.8737   -0.1194   23.8825 C   0  0  0  0  0  0  0  0  0  0  0  0
    8.6253   -0.7606   22.6923 C   0  0  3  0  0  0  0  0  0  0  0  0
    8.2605   -3.3008   23.1249 C   0  0  0  0  0  0  0  0  0  0  0  0
    7.6222    0.9003   26.9415 C   0  0  0  0  0  0  0  0  0  0  0  0
    6.3072    0.3768   17.3417 N   0  0  0  0  0  0  0  0  0  0  0  0
    7.2305   -0.6898   20.7785 N   0  0  0  0  0  0  0  0  0  0  0  0
    8.0155   -2.1541   22.4325 N   0  0  0  0  0  0  0  0  0  0  0  0
    8.6625    1.0133   24.4989 N   0  0  3  0  0  0  0  0  0  0  0  0
    8.8045    1.0418   21.0871 O   0  0  0  0  0  0  0  0  0  0  0  0
    6.1139   -2.7504   21.1411 O   0  0  0  0  0  0  0  0  0  0  0  0
    6.4474    2.2390   25.0297 O   0  0  0  0  0  0  0  0  0  0  0  0
    8.6251    3.1093   25.9709 O   0  0  0  0  0  0  0  0  0  0  0  0
    7.7711    2.0134   25.5679 S   0  0  0  0  0  0  0  0  0  0  0  0
   13.4279   -2.1414   21.1075 Cl  0  0  0  0  0  0  0  0  0  0  0  0
    2.5443    3.3508   20.6368 H   0  0  0  0  0  0  0  0  0  0  0  0
    3.5189    2.1137   22.5166 H   0  0  0  0  0  0  0  0  0  0  0  0
    3.3421    2.9744   18.3363 H   0  0  0  0  0  0  0  0  0  0  0  0
    5.3131    0.4893   22.1569 H   0  0  0  0  0  0  0  0  0  0  0  0
   12.5037    0.6006   24.9720 H   0  0  0  0  0  0  0  0  0  0  0  0
   13.9925   -0.5155   23.3770 H   0  0  0  0  0  0  0  0  0  0  0  0
   10.6064   -2.0209   21.2257 H   0  0  0  0  0  0  0  0  0  0  0  0
    4.9151    1.7511   16.7471 H   0  0  0  0  0  0  0  0  0  0  0  0
    7.6455   -0.9765   18.1038 H   0  0  0  0  0  0  0  0  0  0  0  0
    9.7894   -0.1169   25.8341 H   0  0  0  0  0  0  0  0  0  0  0  0
   10.4831    1.4577   25.3596 H   0  0  0  0  0  0  0  0  0  0  0  0
    6.8963    0.2740   23.5515 H   0  0  0  0  0  0  0  0  0  0  0  0
    7.6768   -0.8555   24.6818 H   0  0  0  0  0  0  0  0  0  0  0  0
    9.0283   -3.8853   22.5969 H   0  0  0  0  0  0  0  0  0  0  0  0
    8.6206   -3.0489   24.1333 H   0  0  0  0  0  0  0  0  0  0  0  0
    7.3374   -3.8940   23.2028 H   0  0  0  0  0  0  0  0  0  0  0  0
    7.0753    1.4073   27.7380 H   0  0  0  0  0  0  0  0  0  0  0  0
    7.0795    0.0140   26.6093 H   0  0  0  0  0  0  0  0  0  0  0  0
    8.6249    0.6315   27.2771 H   0  0  0  0  0  0  0  0  0  0  0  0
  1  2  2  0  0  0  0
  1  3  1  0  0  0  0
  2  4  1  0  0  0  0
  3 10  2  0  0  0  0
  4 11  2  0  0  0  0
  5  6  2  0  0  0  0
  5 12  1  0  0  0  0
  6 15  1  0  0  0  0
  7 13  1  0  0  0  0
  7 15  2  0  0  0  0
  8 10  1  0  0  0  0
  8 23  2  0  0  0  0
  9 14  2  0  0  0  0
  9 23  1  0  0  0  0
 10 11  1  0  0  0  0
 11 14  1  0  0  0  0
 12 13  2  0  0  0  0
 12 18  1  0  0  0  0
 13 20  1  0  0  0  0
 14 24  1  0  0  0  0
 15 32  1  0  0  0  0
 16 20  1  0  0  0  0
 16 24  1  0  0  0  0
 16 27  2  0  0  0  0
 17 24  1  0  0  0  0
 17 25  1  0  0  0  0
 17 28  2  0  0  0  0
 18 26  1  0  0  0  0
 19 20  1  0  0  0  0
 19 26  1  0  0  0  0
 20 25  1  0  0  0  0
 21 25  1  0  0  0  0
 22 31  1  0  0  0  0
 26 31  1  0  0  0  0
 29 31  2  0  0  0  0
 30 31  2  0  0  0  0
  1 33  1  0  0  0  0
  2 34  1  0  0  0  0
  3 35  1  0  0  0  0
  4 36  1  0  0  0  0
  5 37  1  0  0  0  0
  6 38  1  0  0  0  0
  7 39  1  0  0  0  0
  8 40  1  0  0  0  0
  9 41  1  0  0  0  0
 18 42  1  0  0  0  0
 18 43  1  0  0  0  0
 19 44  1  0  0  0  0
 19 45  1  0  0  0  0
 21 46  1  0  0  0  0
 21 47  1  0  0  0  0
 21 48  1  0  0  0  0
 22 49  1  0  0  0  0
 22 50  1  0  0  0  0
 22 51  1  0  0  0  0
M  END
> <scaffold>
tetrahydroisoquinoline-5spiro-isoquinoline

> <compound>
MAT-POS-2e8b2191-8

> <compound_smiles>
CN1C(=O)N(C(=O)C12CN(Cc3c2cc(cc3)Cl)S(=O)(=O)C)c4cncc5c4cccc5

> <enantiomer_smiles>
CN1C(=O)N(C(=O)[C@@]12C[N@](Cc3c2cc(cc3)Cl)S(=O)(=O)C)c4cncc5c4cccc5

> <clash_score>
0

> <docking_score>
3.4028234663852886e+38

> <overlap_score>
1.0128945112228394

> <MMFF_internal_energy>
68.32819707050503

> <docked_smiles>
CN1C(=O)N(C(=O)[C@@]12C[N@](Cc3c2cc(cc3)Cl)S(=O)(=O)C)c4cncc5c4cccc5

$$$$
EDJ-MED-fed7ac0b-4_1
  -OEChem-01042202303D

 50 54  0     1  0  0  0  0  0999 V2000
    3.3444    2.6278   20.4409 C   0  0  0  0  0  0  0  0  0  0  0  0
    3.8974    1.9290   21.5048 C   0  0  0  0  0  0  0  0  0  0  0  0
    3.7877    2.4205   19.1658 C   0  0  0  0  0  0  0  0  0  0  0  0
    4.8986    1.0232   21.2985 C   0  0  0  0  0  0  0  0  0  0  0  0
   12.0781    0.0316   24.1532 C   0  0  0  0  0  0  0  0  0  0  0  0
   12.9147   -0.6032   23.2559 C   0  0  0  0  0  0  0  0  0  0  0  0
   11.0005   -1.4332   22.0435 C   0  0  0  0  0  0  0  0  0  0  0  0
    5.3288    1.2339   17.6062 C   0  0  0  0  0  0  0  0  0  0  0  0
    6.8449   -0.2893   18.3747 C   0  0  0  0  0  0  0  0  0  0  0  0
    4.8238    1.4906   18.9051 C   0  0  0  0  0  0  0  0  0  0  0  0
    5.3995    0.7732   19.9944 C   0  0  0  0  0  0  0  0  0  0  0  0
   10.7056   -0.0626   23.9890 C   0  0  0  0  0  0  0  0  0  0  0  0
   10.1421   -0.7766   22.9242 C   0  0  0  0  0  0  0  0  0  0  0  0
    6.4452   -0.1472   19.6975 C   0  0  0  0  0  0  0  0  0  0  0  0
   12.3697   -1.3298   22.2224 C   0  0  0  0  0  0  0  0  0  0  0  0
    8.0155   -2.1541   22.4325 C   0  0  0  0  0  0  0  0  0  0  0  0
    9.9496    0.5589   24.9527 C   0  0  0  0  0  0  0  0  0  0  0  0
    8.2504    0.0168   21.4265 C   0  0  0  0  0  0  0  0  0  0  0  0
    7.2650    2.0742   26.0442 C   0  0  0  0  0  0  0  0  0  0  0  0
    7.8737   -0.1194   23.8825 C   0  0  0  0  0  0  0  0  0  0  0  0
    8.6253   -0.7606   22.6923 C   0  0  3  0  0  0  0  0  0  0  0  0
    6.4847    3.4257   27.9881 C   0  0  0  0  0  0  0  0  0  0  0  0
    8.0842    2.2140   24.7866 C   0  0  0  0  0  0  0  0  0  0  0  0
    6.3072    0.3768   17.3417 N   0  0  0  0  0  0  0  0  0  0  0  0
    6.9880   -1.9367   21.3575 N   0  0  0  0  0  0  0  0  0  0  0  0
    7.2305   -0.6898   20.7785 N   0  0  0  0  0  0  0  0  0  0  0  0
    8.6625    1.0133   24.4989 N   0  0  0  0  0  0  0  0  0  0  0  0
    7.2060    3.2701   26.7454 N   0  0  0  0  0  0  0  0  0  0  0  0
   10.3276    0.7354   26.1050 O   0  0  0  0  0  0  0  0  0  0  0  0
    8.7992    1.0796   21.0971 O   0  0  0  0  0  0  0  0  0  0  0  0
    6.7242    1.0256   26.3854 O   0  0  0  0  0  0  0  0  0  0  0  0
   13.4288   -2.1362   21.1044 Cl  0  0  0  0  0  0  0  0  0  0  0  0
    2.5443    3.3508   20.6368 H   0  0  0  0  0  0  0  0  0  0  0  0
    3.5189    2.1137   22.5166 H   0  0  0  0  0  0  0  0  0  0  0  0
    3.3421    2.9744   18.3363 H   0  0  0  0  0  0  0  0  0  0  0  0
    5.3131    0.4893   22.1569 H   0  0  0  0  0  0  0  0  0  0  0  0
   12.5195    0.5951   24.9708 H   0  0  0  0  0  0  0  0  0  0  0  0
   13.9920   -0.5122   23.3741 H   0  0  0  0  0  0  0  0  0  0  0  0
   10.6084   -2.0170   21.2221 H   0  0  0  0  0  0  0  0  0  0  0  0
    4.9151    1.7511   16.7471 H   0  0  0  0  0  0  0  0  0  0  0  0
    7.6455   -0.9765   18.1038 H   0  0  0  0  0  0  0  0  0  0  0  0
    8.2057   -3.0292   22.8497 H   0  0  0  0  0  0  0  0  0  0  0  0
    6.9125    0.2797   23.5679 H   0  0  0  0  0  0  0  0  0  0  0  0
    7.7107   -0.8363   24.6851 H   0  0  0  0  0  0  0  0  0  0  0  0
    5.4499    3.7326   27.7760 H   0  0  0  0  0  0  0  0  0  0  0  0
    6.4793    2.4690   28.5310 H   0  0  0  0  0  0  0  0  0  0  0  0
    6.9761    4.1937   28.6034 H   0  0  0  0  0  0  0  0  0  0  0  0
    7.4371    2.5127   23.9567 H   0  0  0  0  0  0  0  0  0  0  0  0
    8.8601    2.9713   24.9317 H   0  0  0  0  0  0  0  0  0  0  0  0
    7.6941    4.0764   26.3664 H   0  0  0  0  0  0  0  0  0  0  0  0
  1  2  2  0  0  0  0
  1  3  1  0  0  0  0
  2  4  1  0  0  0  0
  3 10  2  0  0  0  0
  4 11  2  0  0  0  0
  5  6  2  0  0  0  0
  5 12  1  0  0  0  0
  6 15  1  0  0  0  0
  7 13  1  0  0  0  0
  7 15  2  0  0  0  0
  8 10  1  0  0  0  0
  8 24  2  0  0  0  0
  9 14  2  0  0  0  0
  9 24  1  0  0  0  0
 10 11  1  0  0  0  0
 11 14  1  0  0  0  0
 12 13  2  0  0  0  0
 12 17  1  0  0  0  0
 13 21  1  0  0  0  0
 14 26  1  0  0  0  0
 15 32  1  0  0  0  0
 16 21  1  0  0  0  0
 16 25  2  0  0  0  0
 17 27  1  0  0  0  0
 17 29  2  0  0  0  0
 18 21  1  0  0  0  0
 18 26  1  0  0  0  0
 18 30  2  0  0  0  0
 19 23  1  0  0  0  0
 19 28  1  0  0  0  0
 19 31  2  0  0  0  0
 20 21  1  0  0  0  0
 20 27  1  0  0  0  0
 22 28  1  0  0  0  0
 23 27  1  0  0  0  0
 25 26  1  0  0  0  0
  1 33  1  0  0  0  0
  2 34  1  0  0  0  0
  3 35  1  0  0  0  0
  4 36  1  0  0  0  0
  5 37  1  0  0  0  0
  6 38  1  0  0  0  0
  7 39  1  0  0  0  0
  8 40  1  0  0  0  0
  9 41  1  0  0  0  0
 16 42  1  0  0  0  0
 20 43  1  0  0  0  0
 20 44  1  0  0  0  0
 22 45  1  0  0  0  0
 22 46  1  0  0  0  0
 22 47  1  0  0  0  0
 23 48  1  0  0  0  0
 23 49  1  0  0  0  0
 28 50  1  0  0  0  0
M  END
> <scaffold>
tetrahydroisoquinoline-5spiro-isoquinoline

> <compound>
EDJ-MED-fed7ac0b-4

> <compound_smiles>
CNC(=O)CN1CC2(C=NN(C2=O)c3cncc4c3cccc4)c5cc(ccc5C1=O)Cl

> <enantiomer_smiles>
CNC(=O)CN1C[C@]2(C=NN(C2=O)c3cncc4c3cccc4)c5cc(ccc5C1=O)Cl

> <clash_score>
0

> <docking_score>
3.4028234663852886e+38

> <overlap_score>
0.9895917177200317

> <MMFF_internal_energy>
210.4184704423737

> <docked_smiles>
CNC(=O)CN1C[C@]2(C=NN(C2=O)c3cncc4c3cccc4)c5cc(ccc5C1=O)Cl

$$$$
EDJ-MED-94fddcec-5_1
  -OEChem-01042202303D

 51 55  0     1  0  0  0  0  0999 V2000
    4.8986    1.0232   21.2985 C   0  0  0  0  0  0  0  0  0  0  0  0
   12.0781    0.0316   24.1532 C   0  0  0  0  0  0  0  0  0  0  0  0
    3.8974    1.9290   21.5048 C   0  0  0  0  0  0  0  0  0  0  0  0
   12.9147   -0.6032   23.2559 C   0  0  0  0  0  0  0  0  0  0  0  0
    3.7877    2.4205   19.1658 C   0  0  0  0  0  0  0  0  0  0  0  0
   11.0005   -1.4332   22.0435 C   0  0  0  0  0  0  0  0  0  0  0  0
    5.3288    1.2339   17.6062 C   0  0  0  0  0  0  0  0  0  0  0  0
    6.8449   -0.2893   18.3747 C   0  0  0  0  0  0  0  0  0  0  0  0
    5.3995    0.7732   19.9944 C   0  0  0  0  0  0  0  0  0  0  0  0
    4.8238    1.4906   18.9051 C   0  0  0  0  0  0  0  0  0  0  0  0
   10.1421   -0.7766   22.9242 C   0  0  0  0  0  0  0  0  0  0  0  0
    6.4452   -0.1472   19.6975 C   0  0  0  0  0  0  0  0  0  0  0  0
   10.7056   -0.0626   23.9890 C   0  0  0  0  0  0  0  0  0  0  0  0
    3.3444    2.6278   20.4409 C   0  0  0  0  0  0  0  0  0  0  0  0
   12.3697   -1.3298   22.2224 C   0  0  0  0  0  0  0  0  0  0  0  0
    8.2504    0.0168   21.4265 C   0  0  0  0  0  0  0  0  0  0  0  0
    8.0155   -2.1541   22.4325 C   0  0  0  0  0  0  0  0  0  0  0  0
    7.8737   -0.1194   23.8825 C   0  0  0  0  0  0  0  0  0  0  0  0
    6.9880   -1.9367   21.3575 C   0  0  0  0  0  0  0  0  0  0  0  0
    8.6625    1.0133   24.4989 C   0  0  0  0  0  0  0  0  0  0  0  0
    8.6253   -0.7606   22.6923 C   0  0  3  0  0  0  0  0  0  0  0  0
    0.5701    2.8294   20.6201 C   0  0  0  0  0  0  0  0  0  0  0  0
    6.3072    0.3768   17.3417 N   0  0  0  0  0  0  0  0  0  0  0  0
    7.2305   -0.6898   20.7785 N   0  0  0  0  0  0  0  0  0  0  0  0
    8.7566    1.0941   21.1311 O   0  0  0  0  0  0  0  0  0  0  0  0
    9.7120   -0.4300   26.1378 O   0  0  0  0  0  0  0  0  0  0  0  0
   10.7467    1.7884   25.4917 O   0  0  0  0  0  0  0  0  0  0  0  0
    2.1866    4.2385   22.1289 O   0  0  0  0  0  0  0  0  0  0  0  0
    2.0350    4.7647   19.6700 O   0  0  0  0  0  0  0  0  0  0  0  0
    9.9496    0.5589   24.9527 S   0  0  0  0  0  0  0  0  0  0  0  0
    2.0628    3.7877   20.7500 S   0  0  0  0  0  0  0  0  0  0  0  0
   13.4302   -2.1437   21.1108 Cl  0  0  0  0  0  0  0  0  0  0  0  0
    5.3127    0.4890   22.1568 H   0  0  0  0  0  0  0  0  0  0  0  0
   12.5141    0.5961   24.9741 H   0  0  0  0  0  0  0  0  0  0  0  0
    3.5274    2.1069   22.5215 H   0  0  0  0  0  0  0  0  0  0  0  0
   13.9930   -0.5214   23.3817 H   0  0  0  0  0  0  0  0  0  0  0  0
    3.3498    2.9707   18.3288 H   0  0  0  0  0  0  0  0  0  0  0  0
   10.6120   -2.0228   21.2300 H   0  0  0  0  0  0  0  0  0  0  0  0
    4.9155    1.7517   16.7470 H   0  0  0  0  0  0  0  0  0  0  0  0
    7.6461   -0.9756   18.1037 H   0  0  0  0  0  0  0  0  0  0  0  0
    7.5792   -2.6139   23.3283 H   0  0  0  0  0  0  0  0  0  0  0  0
    8.7727   -2.8629   22.0635 H   0  0  0  0  0  0  0  0  0  0  0  0
    7.6629   -0.8655   24.6523 H   0  0  0  0  0  0  0  0  0  0  0  0
    6.9026    0.2573   23.5461 H   0  0  0  0  0  0  0  0  0  0  0  0
    7.0247   -2.7501   20.5941 H   0  0  0  0  0  0  0  0  0  0  0  0
    5.9565   -1.9488   21.7820 H   0  0  0  0  0  0  0  0  0  0  0  0
    8.7048    1.8247   23.7053 H   0  0  0  0  0  0  0  0  0  0  0  0
    8.0006    1.4860   25.2925 H   0  0  0  0  0  0  0  0  0  0  0  0
   -0.2796    3.4891   20.8028 H   0  0  0  0  0  0  0  0  0  0  0  0
    0.5179    2.4079   19.6152 H   0  0  0  0  0  0  0  0  0  0  0  0
    0.6050    2.0350   21.3671 H   0  0  0  0  0  0  0  0  0  0  0  0
  1  3  2  0  0  0  0
  1  9  1  0  0  0  0
  2  4  2  0  0  0  0
  2 13  1  0  0  0  0
  3 14  1  0  0  0  0
  4 15  1  0  0  0  0
  5 10  1  0  0  0  0
  5 14  2  0  0  0  0
  6 11  1  0  0  0  0
  6 15  2  0  0  0  0
  7 10  2  0  0  0  0
  7 23  1  0  0  0  0
  8 12  1  0  0  0  0
  8 23  2  0  0  0  0
  9 10  1  0  0  0  0
  9 12  2  0  0  0  0
 11 13  2  0  0  0  0
 11 21  1  0  0  0  0
 12 24  1  0  0  0  0
 13 30  1  0  0  0  0
 14 31  1  0  0  0  0
 15 32  1  0  0  0  0
 16 21  1  0  0  0  0
 16 24  1  0  0  0  0
 16 25  2  0  0  0  0
 17 19  1  0  0  0  0
 17 21  1  0  0  0  0
 18 20  1  0  0  0  0
 18 21  1  0  0  0  0
 19 24  1  0  0  0  0
 20 30  1  0  0  0  0
 22 31  1  0  0  0  0
 26 30  2  0  0  0  0
 27 30  2  0  0  0  0
 28 31  2  0  0  0  0
 29 31  2  0  0  0  0
  1 33  1  0  0  0  0
  2 34  1  0  0  0  0
  3 35  1  0  0  0  0
  4 36  1  0  0  0  0
  5 37  1  0  0  0  0
  6 38  1  0  0  0  0
  7 39  1  0  0  0  0
  8 40  1  0  0  0  0
 17 41  1  0  0  0  0
 17 42  1  0  0  0  0
 18 43  1  0  0  0  0
 18 44  1  0  0  0  0
 19 45  1  0  0  0  0
 19 46  1  0  0  0  0
 20 47  1  0  0  0  0
 20 48  1  0  0  0  0
 22 49  1  0  0  0  0
 22 50  1  0  0  0  0
 22 51  1  0  0  0  0
M  END
> <scaffold>
tetralinlike-5spiro-isoquinoline

> <compound>
EDJ-MED-94fddcec-5

> <compound_smiles>
CS(=O)(=O)c1ccc2c(c1)cncc2N3CCC4(C3=O)CCS(=O)(=O)c5c4cc(cc5)Cl

> <enantiomer_smiles>
CS(=O)(=O)c1ccc2c(c1)cncc2N3CC[C@@]4(C3=O)CCS(=O)(=O)c5c4cc(cc5)Cl

> <clash_score>
1.429542986539678

> <docking_score>
3.4028234663852886e+38

> <overlap_score>
1.0

> <MMFF_internal_energy>
319.9614310059807

> <docked_smiles>
CS(=O)(=O)c1ccc2c(c1)cncc2N3CC[C@@]4(C3=O)CCS(=O)(=O)c5c4cc(cc5)Cl

$$$$
EDJ-MED-8bb691af-1_1
  -OEChem-01042202303D

 56 60  0     1  0  0  0  0  0999 V2000
    3.3444    2.6278   20.4409 C   0  0  0  0  0  0  0  0  0  0  0  0
    3.8974    1.9290   21.5048 C   0  0  0  0  0  0  0  0  0  0  0  0
    3.7877    2.4205   19.1658 C   0  0  0  0  0  0  0  0  0  0  0  0
    4.8986    1.0232   21.2985 C   0  0  0  0  0  0  0  0  0  0  0  0
   12.0781    0.0316   24.1532 C   0  0  0  0  0  0  0  0  0  0  0  0
   12.9147   -0.6032   23.2559 C   0  0  0  0  0  0  0  0  0  0  0  0
   11.0005   -1.4332   22.0435 C   0  0  0  0  0  0  0  0  0  0  0  0
    5.3288    1.2339   17.6062 C   0  0  0  0  0  0  0  0  0  0  0  0
    6.8449   -0.2893   18.3747 C   0  0  0  0  0  0  0  0  0  0  0  0
    4.8238    1.4906   18.9051 C   0  0  0  0  0  0  0  0  0  0  0  0
    5.3995    0.7732   19.9944 C   0  0  0  0  0  0  0  0  0  0  0  0
   10.7056   -0.0626   23.9890 C   0  0  0  0  0  0  0  0  0  0  0  0
   10.1421   -0.7766   22.9242 C   0  0  0  0  0  0  0  0  0  0  0  0
    6.4452   -0.1472   19.6975 C   0  0  0  0  0  0  0  0  0  0  0  0
   12.3697   -1.3298   22.2224 C   0  0  0  0  0  0  0  0  0  0  0  0
    6.7884    2.6073   24.9976 C   0  0  0  0  0  0  0  0  0  0  0  0
    9.9496    0.5589   24.9527 C   0  0  0  0  0  0  0  0  0  0  0  0
    8.0155   -2.1541   22.4325 C   0  0  0  0  0  0  0  0  0  0  0  0
    6.9880   -1.9367   21.3575 C   0  0  0  0  0  0  0  0  0  0  0  0
    8.2504    0.0168   21.4265 C   0  0  0  0  0  0  0  0  0  0  0  0
    7.8737   -0.1194   23.8825 C   0  0  0  0  0  0  0  0  0  0  0  0
    8.6253   -0.7606   22.6923 C   0  0  3  0  0  0  0  0  0  0  0  0
    4.5205    3.4657   25.5050 C   0  0  0  0  0  0  0  0  0  0  0  0
    7.8633    1.7189   25.5717 C   0  0  0  0  0  0  0  0  0  0  0  0
    6.3072    0.3768   17.3417 N   0  0  0  0  0  0  0  0  0  0  0  0
    7.2305   -0.6898   20.7785 N   0  0  3  0  0  0  0  0  0  0  0  0
    5.6836    2.6762   25.8331 N   0  0  0  0  0  0  0  0  0  0  0  0
    8.6625    1.0133   24.4989 N   0  3  3  0  0  0  0  0  0  0  0  0
    6.8985    3.1896   23.9219 O   0  0  0  0  0  0  0  0  0  0  0  0
   13.4303   -2.1403   21.1092 Cl  0  0  0  0  0  0  0  0  0  0  0  0
    2.5445    3.3511   20.6368 H   0  0  0  0  0  0  0  0  0  0  0  0
    3.5193    2.1138   22.5167 H   0  0  0  0  0  0  0  0  0  0  0  0
    3.3422    2.9745   18.3362 H   0  0  0  0  0  0  0  0  0  0  0  0
    5.3126    0.4886   22.1566 H   0  0  0  0  0  0  0  0  0  0  0  0
   12.5050    0.5906   24.9772 H   0  0  0  0  0  0  0  0  0  0  0  0
   13.9932   -0.5232   23.3823 H   0  0  0  0  0  0  0  0  0  0  0  0
   10.6229   -2.0198   21.2237 H   0  0  0  0  0  0  0  0  0  0  0  0
    4.9147    1.7513   16.7473 H   0  0  0  0  0  0  0  0  0  0  0  0
    7.6457   -0.9763   18.1044 H   0  0  0  0  0  0  0  0  0  0  0  0
    9.7583   -0.1265   25.8154 H   0  0  0  0  0  0  0  0  0  0  0  0
   10.4558    1.4632   25.3721 H   0  0  0  0  0  0  0  0  0  0  0  0
    7.5782   -2.6111   23.3299 H   0  0  0  0  0  0  0  0  0  0  0  0
    8.7852   -2.8437   22.0563 H   0  0  0  0  0  0  0  0  0  0  0  0
    7.0324   -2.7729   20.6123 H   0  0  0  0  0  0  0  0  0  0  0  0
    5.9540   -1.9853   21.7846 H   0  0  0  0  0  0  0  0  0  0  0  0
    7.9616    1.0716   21.6580 H   0  0  0  0  0  0  0  0  0  0  0  0
    9.1286    0.1009   20.7425 H   0  0  0  0  0  0  0  0  0  0  0  0
    6.9040    0.3024   23.5623 H   0  0  0  0  0  0  0  0  0  0  0  0
    7.6695   -0.8507   24.6870 H   0  0  0  0  0  0  0  0  0  0  0  0
    4.6298    4.4745   25.9296 H   0  0  0  0  0  0  0  0  0  0  0  0
    4.4224    3.5369   24.4117 H   0  0  0  0  0  0  0  0  0  0  0  0
    3.6228    2.9872   25.9233 H   0  0  0  0  0  0  0  0  0  0  0  0
    7.4202    0.9307   26.1867 H   0  0  0  0  0  0  0  0  0  0  0  0
    8.5706    2.3094   26.1607 H   0  0  0  0  0  0  0  0  0  0  0  0
    5.6724    2.1394   26.6956 H   0  0  0  0  0  0  0  0  0  0  0  0
    8.7953    1.7204   23.7530 H   0  0  0  0  0  0  0  0  0  0  0  0
  1  2  2  0  0  0  0
  1  3  1  0  0  0  0
  2  4  1  0  0  0  0
  3 10  2  0  0  0  0
  4 11  2  0  0  0  0
  5  6  2  0  0  0  0
  5 12  1  0  0  0  0
  6 15  1  0  0  0  0
  7 13  1  0  0  0  0
  7 15  2  0  0  0  0
  8 10  1  0  0  0  0
  8 25  2  0  0  0  0
  9 14  2  0  0  0  0
  9 25  1  0  0  0  0
 10 11  1  0  0  0  0
 11 14  1  0  0  0  0
 12 13  2  0  0  0  0
 12 17  1  0  0  0  0
 13 22  1  0  0  0  0
 14 26  1  0  0  0  0
 15 30  1  0  0  0  0
 16 24  1  0  0  0  0
 16 27  1  0  0  0  0
 16 29  2  0  0  0  0
 17 28  1  0  0  0  0
 18 19  1  0  0  0  0
 18 22  1  0  0  0  0
 19 26  1  0  0  0  0
 20 22  1  0  0  0  0
 20 26  1  0  0  0  0
 21 22  1  0  0  0  0
 21 28  1  0  0  0  0
 23 27  1  0  0  0  0
 24 28  1  0  0  0  0
  1 31  1  0  0  0  0
  2 32  1  0  0  0  0
  3 33  1  0  0  0  0
  4 34  1  0  0  0  0
  5 35  1  0  0  0  0
  6 36  1  0  0  0  0
  7 37  1  0  0  0  0
  8 38  1  0  0  0  0
  9 39  1  0  0  0  0
 17 40  1  0  0  0  0
 17 41  1  0  0  0  0
 18 42  1  0  0  0  0
 18 43  1  0  0  0  0
 19 44  1  0  0  0  0
 19 45  1  0  0  0  0
 20 46  1  0  0  0  0
 20 47  1  0  0  0  0
 21 48  1  0  0  0  0
 21 49  1  0  0  0  0
 23 50  1  0  0  0  0
 23 51  1  0  0  0  0
 23 52  1  0  0  0  0
 24 53  1  0  0  0  0
 24 54  1  0  0  0  0
 27 55  1  0  0  0  0
 28 56  1  0  0  0  0
M  CHG  1  28   1
M  END
> <scaffold>
tetrahydroisoquinoline-5spiro-isoquinoline

> <compound>
EDJ-MED-8bb691af-1

> <compound_smiles>
CNC(=O)CN1Cc2ccc(cc2C3(C1)CCN(C3)c4cncc5c4cccc5)Cl

> <enantiomer_smiles>
CNC(=O)C[N@]1Cc2ccc(cc2[C@@]3(C1)CCN(C3)c4cncc5c4cccc5)Cl

> <clash_score>
0

> <docking_score>
3.4028234663852886e+38

> <overlap_score>
0.9503654837608337

> <MMFF_internal_energy>
175.52165047751467

> <docked_smiles>
CNC(=O)C[N@H+]1Cc2ccc(cc2[C@@]3(C1)CCN(C3)c4cncc5c4cccc5)Cl

$$$$
EDJ-MED-fed7ac0b-1_1
  -OEChem-01042202303D

 52 56  0     1  0  0  0  0  0999 V2000
    3.3444    2.6278   20.4409 C   0  0  0  0  0  0  0  0  0  0  0  0
    3.8974    1.9290   21.5048 C   0  0  0  0  0  0  0  0  0  0  0  0
    3.7877    2.4205   19.1658 C   0  0  0  0  0  0  0  0  0  0  0  0
    4.8986    1.0232   21.2985 C   0  0  0  0  0  0  0  0  0  0  0  0
   12.0781    0.0316   24.1532 C   0  0  0  0  0  0  0  0  0  0  0  0
   12.9147   -0.6032   23.2559 C   0  0  0  0  0  0  0  0  0  0  0  0
   11.0005   -1.4332   22.0435 C   0  0  0  0  0  0  0  0  0  0  0  0
    5.3288    1.2339   17.6062 C   0  0  0  0  0  0  0  0  0  0  0  0
    6.8449   -0.2893   18.3747 C   0  0  0  0  0  0  0  0  0  0  0  0
    4.8238    1.4906   18.9051 C   0  0  0  0  0  0  0  0  0  0  0  0
    5.3995    0.7732   19.9944 C   0  0  0  0  0  0  0  0  0  0  0  0
   10.7056   -0.0626   23.9890 C   0  0  0  0  0  0  0  0  0  0  0  0
   10.1421   -0.7766   22.9242 C   0  0  0  0  0  0  0  0  0  0  0  0
    6.4452   -0.1472   19.6975 C   0  0  0  0  0  0  0  0  0  0  0  0
   12.3697   -1.3298   22.2224 C   0  0  0  0  0  0  0  0  0  0  0  0
    9.9496    0.5589   24.9527 C   0  0  0  0  0  0  0  0  0  0  0  0
    8.2504    0.0168   21.4265 C   0  0  0  0  0  0  0  0  0  0  0  0
    7.2644    2.1117   26.0483 C   0  0  0  0  0  0  0  0  0  0  0  0
    8.0155   -2.1541   22.4325 C   0  0  0  0  0  0  0  0  0  0  0  0
    7.8737   -0.1194   23.8825 C   0  0  0  0  0  0  0  0  0  0  0  0
    8.6253   -0.7606   22.6923 C   0  0  3  0  0  0  0  0  0  0  0  0
    6.5041    3.5119   27.9655 C   0  0  0  0  0  0  0  0  0  0  0  0
    8.0834    2.2157   24.7871 C   0  0  0  0  0  0  0  0  0  0  0  0
    6.3072    0.3768   17.3417 N   0  0  0  0  0  0  0  0  0  0  0  0
    6.9880   -1.9367   21.3575 N   0  0  0  0  0  0  0  0  0  0  0  0
    7.2305   -0.6898   20.7785 N   0  0  0  0  0  0  0  0  0  0  0  0
    8.6625    1.0133   24.4989 N   0  0  0  0  0  0  0  0  0  0  0  0
    7.2215    3.3221   26.7253 N   0  0  0  0  0  0  0  0  0  0  0  0
   10.3272    0.7354   26.1064 O   0  0  0  0  0  0  0  0  0  0  0  0
    8.8179    1.0496   21.0818 O   0  0  0  0  0  0  0  0  0  0  0  0
    6.7109    1.0771   26.4113 O   0  0  0  0  0  0  0  0  0  0  0  0
   13.4287   -2.1355   21.1038 Cl  0  0  0  0  0  0  0  0  0  0  0  0
    2.5443    3.3508   20.6368 H   0  0  0  0  0  0  0  0  0  0  0  0
    3.5189    2.1137   22.5166 H   0  0  0  0  0  0  0  0  0  0  0  0
    3.3421    2.9744   18.3363 H   0  0  0  0  0  0  0  0  0  0  0  0
    5.3131    0.4893   22.1569 H   0  0  0  0  0  0  0  0  0  0  0  0
   12.5192    0.5959   24.9705 H   0  0  0  0  0  0  0  0  0  0  0  0
   13.9920   -0.5111   23.3733 H   0  0  0  0  0  0  0  0  0  0  0  0
   10.6075   -2.0142   21.2208 H   0  0  0  0  0  0  0  0  0  0  0  0
    4.9151    1.7511   16.7471 H   0  0  0  0  0  0  0  0  0  0  0  0
    7.6455   -0.9765   18.1038 H   0  0  0  0  0  0  0  0  0  0  0  0
    8.7468   -2.8992   22.1135 H   0  0  0  0  0  0  0  0  0  0  0  0
    7.4963   -2.5510   23.3104 H   0  0  0  0  0  0  0  0  0  0  0  0
    6.9014    0.2716   23.5880 H   0  0  0  0  0  0  0  0  0  0  0  0
    7.7187   -0.8371   24.6897 H   0  0  0  0  0  0  0  0  0  0  0  0
    5.4730    3.8276   27.7486 H   0  0  0  0  0  0  0  0  0  0  0  0
    6.4875    2.5665   28.5276 H   0  0  0  0  0  0  0  0  0  0  0  0
    7.0061    4.2859   28.5645 H   0  0  0  0  0  0  0  0  0  0  0  0
    7.4388    2.5058   23.9521 H   0  0  0  0  0  0  0  0  0  0  0  0
    8.8690    2.9659   24.9159 H   0  0  0  0  0  0  0  0  0  0  0  0
    7.1411   -2.6378   20.6245 H   0  0  0  0  0  0  0  0  0  0  0  0
    7.7192    4.1144   26.3295 H   0  0  0  0  0  0  0  0  0  0  0  0
  1  2  2  0  0  0  0
  1  3  1  0  0  0  0
  2  4  1  0  0  0  0
  3 10  2  0  0  0  0
  4 11  2  0  0  0  0
  5  6  2  0  0  0  0
  5 12  1  0  0  0  0
  6 15  1  0  0  0  0
  7 13  1  0  0  0  0
  7 15  2  0  0  0  0
  8 10  1  0  0  0  0
  8 24  2  0  0  0  0
  9 14  2  0  0  0  0
  9 24  1  0  0  0  0
 10 11  1  0  0  0  0
 11 14  1  0  0  0  0
 12 13  2  0  0  0  0
 12 16  1  0  0  0  0
 13 21  1  0  0  0  0
 14 26  1  0  0  0  0
 15 32  1  0  0  0  0
 16 27  1  0  0  0  0
 16 29  2  0  0  0  0
 17 21  1  0  0  0  0
 17 26  1  0  0  0  0
 17 30  2  0  0  0  0
 18 23  1  0  0  0  0
 18 28  1  0  0  0  0
 18 31  2  0  0  0  0
 19 21  1  0  0  0  0
 19 25  1  0  0  0  0
 20 21  1  0  0  0  0
 20 27  1  0  0  0  0
 22 28  1  0  0  0  0
 23 27  1  0  0  0  0
 25 26  1  0  0  0  0
  1 33  1  0  0  0  0
  2 34  1  0  0  0  0
  3 35  1  0  0  0  0
  4 36  1  0  0  0  0
  5 37  1  0  0  0  0
  6 38  1  0  0  0  0
  7 39  1  0  0  0  0
  8 40  1  0  0  0  0
  9 41  1  0  0  0  0
 19 42  1  0  0  0  0
 19 43  1  0  0  0  0
 20 44  1  0  0  0  0
 20 45  1  0  0  0  0
 22 46  1  0  0  0  0
 22 47  1  0  0  0  0
 22 48  1  0  0  0  0
 23 49  1  0  0  0  0
 23 50  1  0  0  0  0
 25 51  1  0  0  0  0
 28 52  1  0  0  0  0
M  END
> <scaffold>
tetrahydroisoquinoline-5spiro-isoquinoline

> <compound>
EDJ-MED-fed7ac0b-1

> <compound_smiles>
CNC(=O)CN1CC2(CNN(C2=O)c3cncc4c3cccc4)c5cc(ccc5C1=O)Cl

> <enantiomer_smiles>
CNC(=O)CN1C[C@@]2(CNN(C2=O)c3cncc4c3cccc4)c5cc(ccc5C1=O)Cl

> <clash_score>
0

> <docking_score>
3.4028234663852886e+38

> <overlap_score>
0.9895501136779785

> <MMFF_internal_energy>
194.43326178754026

> <docked_smiles>
CNC(=O)CN1C[C@@]2(CNN(C2=O)c3cncc4c3cccc4)c5cc(ccc5C1=O)Cl

$$$$
EDJ-MED-8bb691af-4_1
  -OEChem-01042202303D

 55 59  0     1  0  0  0  0  0999 V2000
    3.3444    2.6278   20.4409 C   0  0  0  0  0  0  0  0  0  0  0  0
    3.8974    1.9290   21.5048 C   0  0  0  0  0  0  0  0  0  0  0  0
    3.7877    2.4205   19.1658 C   0  0  0  0  0  0  0  0  0  0  0  0
    4.8986    1.0232   21.2985 C   0  0  0  0  0  0  0  0  0  0  0  0
   12.0781    0.0316   24.1532 C   0  0  0  0  0  0  0  0  0  0  0  0
   12.9147   -0.6032   23.2559 C   0  0  0  0  0  0  0  0  0  0  0  0
   11.0005   -1.4332   22.0435 C   0  0  0  0  0  0  0  0  0  0  0  0
    5.3288    1.2339   17.6062 C   0  0  0  0  0  0  0  0  0  0  0  0
    6.8449   -0.2893   18.3747 C   0  0  0  0  0  0  0  0  0  0  0  0
    4.8238    1.4906   18.9051 C   0  0  0  0  0  0  0  0  0  0  0  0
    5.3995    0.7732   19.9944 C   0  0  0  0  0  0  0  0  0  0  0  0
   10.7056   -0.0626   23.9890 C   0  0  0  0  0  0  0  0  0  0  0  0
   10.1421   -0.7766   22.9242 C   0  0  0  0  0  0  0  0  0  0  0  0
    6.4452   -0.1472   19.6975 C   0  0  0  0  0  0  0  0  0  0  0  0
   12.3697   -1.3298   22.2224 C   0  0  0  0  0  0  0  0  0  0  0  0
    8.2504    0.0168   21.4265 C   0  0  0  0  0  0  0  0  0  0  0  0
    6.7850    2.6041   25.0047 C   0  0  0  0  0  0  0  0  0  0  0  0
    9.9496    0.5589   24.9527 C   0  0  0  0  0  0  0  0  0  0  0  0
    8.0155   -2.1541   22.4325 C   0  0  0  0  0  0  0  0  0  0  0  0
    6.9880   -1.9367   21.3575 C   0  0  0  0  0  0  0  0  0  0  0  0
    7.8737   -0.1194   23.8825 C   0  0  0  0  0  0  0  0  0  0  0  0
    8.6253   -0.7606   22.6923 C   0  0  3  0  0  0  0  0  0  0  0  0
    4.5270    3.4782   25.5291 C   0  0  0  0  0  0  0  0  0  0  0  0
    7.8612    1.7144   25.5743 C   0  0  0  0  0  0  0  0  0  0  0  0
    6.3072    0.3768   17.3417 N   0  0  0  0  0  0  0  0  0  0  0  0
    7.2305   -0.6898   20.7785 N   0  0  0  0  0  0  0  0  0  0  0  0
    5.6894    2.6850   25.8510 N   0  0  0  0  0  0  0  0  0  0  0  0
    8.6625    1.0133   24.4989 N   0  3  3  0  0  0  0  0  0  0  0  0
    8.8307    1.0396   21.0789 O   0  0  0  0  0  0  0  0  0  0  0  0
    6.8869    3.1779   23.9236 O   0  0  0  0  0  0  0  0  0  0  0  0
   13.4286   -2.1403   21.1072 Cl  0  0  0  0  0  0  0  0  0  0  0  0
    2.5443    3.3508   20.6368 H   0  0  0  0  0  0  0  0  0  0  0  0
    3.5189    2.1137   22.5166 H   0  0  0  0  0  0  0  0  0  0  0  0
    3.3421    2.9744   18.3363 H   0  0  0  0  0  0  0  0  0  0  0  0
    5.3131    0.4893   22.1569 H   0  0  0  0  0  0  0  0  0  0  0  0
   12.5040    0.5973   24.9741 H   0  0  0  0  0  0  0  0  0  0  0  0
   13.9926   -0.5176   23.3780 H   0  0  0  0  0  0  0  0  0  0  0  0
   10.6057   -2.0168   21.2239 H   0  0  0  0  0  0  0  0  0  0  0  0
    4.9151    1.7511   16.7471 H   0  0  0  0  0  0  0  0  0  0  0  0
    7.6455   -0.9765   18.1038 H   0  0  0  0  0  0  0  0  0  0  0  0
    9.7630   -0.1207   25.8244 H   0  0  0  0  0  0  0  0  0  0  0  0
   10.4585    1.4662   25.3691 H   0  0  0  0  0  0  0  0  0  0  0  0
    7.5159   -2.5477   23.3319 H   0  0  0  0  0  0  0  0  0  0  0  0
    8.7613   -2.9061   22.1409 H   0  0  0  0  0  0  0  0  0  0  0  0
    7.0594   -2.7244   20.5709 H   0  0  0  0  0  0  0  0  0  0  0  0
    5.9531   -1.9957   21.7710 H   0  0  0  0  0  0  0  0  0  0  0  0
    6.8972    0.2930   23.5750 H   0  0  0  0  0  0  0  0  0  0  0  0
    7.6778   -0.8486   24.6901 H   0  0  0  0  0  0  0  0  0  0  0  0
    4.6459    4.4896   25.9451 H   0  0  0  0  0  0  0  0  0  0  0  0
    4.4179    3.5418   24.4364 H   0  0  0  0  0  0  0  0  0  0  0  0
    3.6312    3.0075   25.9603 H   0  0  0  0  0  0  0  0  0  0  0  0
    7.4204    0.9331   26.1997 H   0  0  0  0  0  0  0  0  0  0  0  0
    8.5777    2.3054   26.1514 H   0  0  0  0  0  0  0  0  0  0  0  0
    5.6843    2.1547   26.7176 H   0  0  0  0  0  0  0  0  0  0  0  0
    8.7953    1.7233   23.7550 H   0  0  0  0  0  0  0  0  0  0  0  0
  1  2  2  0  0  0  0
  1  3  1  0  0  0  0
  2  4  1  0  0  0  0
  3 10  2  0  0  0  0
  4 11  2  0  0  0  0
  5  6  2  0  0  0  0
  5 12  1  0  0  0  0
  6 15  1  0  0  0  0
  7 13  1  0  0  0  0
  7 15  2  0  0  0  0
  8 10  1  0  0  0  0
  8 25  2  0  0  0  0
  9 14  2  0  0  0  0
  9 25  1  0  0  0  0
 10 11  1  0  0  0  0
 11 14  1  0  0  0  0
 12 13  2  0  0  0  0
 12 18  1  0  0  0  0
 13 22  1  0  0  0  0
 14 26  1  0  0  0  0
 15 31  1  0  0  0  0
 16 22  1  0  0  0  0
 16 26  1  0  0  0  0
 16 29  2  0  0  0  0
 17 24  1  0  0  0  0
 17 27  1  0  0  0  0
 17 30  2  0  0  0  0
 18 28  1  0  0  0  0
 19 20  1  0  0  0  0
 19 22  1  0  0  0  0
 20 26  1  0  0  0  0
 21 22  1  0  0  0  0
 21 28  1  0  0  0  0
 23 27  1  0  0  0  0
 24 28  1  0  0  0  0
  1 32  1  0  0  0  0
  2 33  1  0  0  0  0
  3 34  1  0  0  0  0
  4 35  1  0  0  0  0
  5 36  1  0  0  0  0
  6 37  1  0  0  0  0
  7 38  1  0  0  0  0
  8 39  1  0  0  0  0
  9 40  1  0  0  0  0
 18 41  1  0  0  0  0
 18 42  1  0  0  0  0
 19 43  1  0  0  0  0
 19 44  1  0  0  0  0
 20 45  1  0  0  0  0
 20 46  1  0  0  0  0
 21 47  1  0  0  0  0
 21 48  1  0  0  0  0
 23 49  1  0  0  0  0
 23 50  1  0  0  0  0
 23 51  1  0  0  0  0
 24 52  1  0  0  0  0
 24 53  1  0  0  0  0
 27 54  1  0  0  0  0
 28 55  1  0  0  0  0
M  CHG  1  28   1
M  END
> <scaffold>
tetrahydroisoquinoline-5spiro-isoquinoline

> <compound>
EDJ-MED-8bb691af-4

> <compound_smiles>
CNC(=O)CN1Cc2ccc(cc2C3(C1)CCN(C3=O)c4cncc5c4cccc5)Cl

> <enantiomer_smiles>
CNC(=O)C[N@]1Cc2ccc(cc2[C@@]3(C1)CCN(C3=O)c4cncc5c4cccc5)Cl

> <clash_score>
0

> <docking_score>
3.4028234663852886e+38

> <overlap_score>
0.9768840670585632

> <MMFF_internal_energy>
157.56368759159636

> <docked_smiles>
CNC(=O)C[N@H+]1Cc2ccc(cc2[C@@]3(C1)CCN(C3=O)c4cncc5c4cccc5)Cl

$$$$
LUO-POS-ed2cfb03-2_1
  -OEChem-01042202303D

 52 56  0     1  0  0  0  0  0999 V2000
    3.3444    2.6278   20.4409 C   0  0  0  0  0  0  0  0  0  0  0  0
    3.8974    1.9290   21.5048 C   0  0  0  0  0  0  0  0  0  0  0  0
    3.7877    2.4205   19.1658 C   0  0  0  0  0  0  0  0  0  0  0  0
    4.8986    1.0232   21.2985 C   0  0  0  0  0  0  0  0  0  0  0  0
   12.0781    0.0316   24.1532 C   0  0  0  0  0  0  0  0  0  0  0  0
   12.9147   -0.6032   23.2559 C   0  0  0  0  0  0  0  0  0  0  0  0
   11.0005   -1.4332   22.0435 C   0  0  0  0  0  0  0  0  0  0  0  0
    5.3288    1.2339   17.6062 C   0  0  0  0  0  0  0  0  0  0  0  0
    6.8449   -0.2893   18.3747 C   0  0  0  0  0  0  0  0  0  0  0  0
    4.8238    1.4906   18.9051 C   0  0  0  0  0  0  0  0  0  0  0  0
    5.3995    0.7732   19.9944 C   0  0  0  0  0  0  0  0  0  0  0  0
   10.7056   -0.0626   23.9890 C   0  0  0  0  0  0  0  0  0  0  0  0
   10.1421   -0.7766   22.9242 C   0  0  0  0  0  0  0  0  0  0  0  0
    6.4452   -0.1472   19.6975 C   0  0  0  0  0  0  0  0  0  0  0  0
   12.3697   -1.3298   22.2224 C   0  0  0  0  0  0  0  0  0  0  0  0
    8.2504    0.0168   21.4265 C   0  0  0  0  0  0  0  0  0  0  0  0
    9.9496    0.5589   24.9527 C   0  0  0  0  0  0  0  0  0  0  0  0
    8.0155   -2.1541   22.4325 C   0  0  0  0  0  0  0  0  0  0  0  0
    6.9880   -1.9367   21.3575 C   0  0  0  0  0  0  0  0  0  0  0  0
    7.8737   -0.1194   23.8825 C   0  0  0  0  0  0  0  0  0  0  0  0
    8.6253   -0.7606   22.6923 C   0  0  3  0  0  0  0  0  0  0  0  0
    9.3996    3.9698   24.5333 C   0  0  0  0  0  0  0  0  0  0  0  0
    6.3072    0.3768   17.3417 N   0  0  0  0  0  0  0  0  0  0  0  0
    7.2305   -0.6898   20.7785 N   0  0  0  0  0  0  0  0  0  0  0  0
    8.6625    1.0133   24.4989 N   0  0  3  0  0  0  0  0  0  0  0  0
    8.8396    3.3497   25.7496 N   0  0  0  0  0  0  0  0  0  0  0  0
    8.8314    1.0394   21.0790 O   0  0  0  0  0  0  0  0  0  0  0  0
    7.6764    1.3392   26.8427 O   0  0  0  0  0  0  0  0  0  0  0  0
    6.5717    2.4625   24.8774 O   0  0  0  0  0  0  0  0  0  0  0  0
    7.7725    2.0180   25.5623 S   0  0  0  0  0  0  0  0  0  0  0  0
   13.4285   -2.1410   21.1076 Cl  0  0  0  0  0  0  0  0  0  0  0  0
    2.5443    3.3508   20.6368 H   0  0  0  0  0  0  0  0  0  0  0  0
    3.5189    2.1137   22.5166 H   0  0  0  0  0  0  0  0  0  0  0  0
    3.3421    2.9744   18.3363 H   0  0  0  0  0  0  0  0  0  0  0  0
    5.3131    0.4893   22.1569 H   0  0  0  0  0  0  0  0  0  0  0  0
   12.5038    0.5986   24.9731 H   0  0  0  0  0  0  0  0  0  0  0  0
   13.9925   -0.5165   23.3773 H   0  0  0  0  0  0  0  0  0  0  0  0
   10.6052   -2.0169   21.2237 H   0  0  0  0  0  0  0  0  0  0  0  0
    4.9151    1.7511   16.7471 H   0  0  0  0  0  0  0  0  0  0  0  0
    7.6455   -0.9765   18.1038 H   0  0  0  0  0  0  0  0  0  0  0  0
    9.7866   -0.1187   25.8304 H   0  0  0  0  0  0  0  0  0  0  0  0
   10.4816    1.4567   25.3600 H   0  0  0  0  0  0  0  0  0  0  0  0
    7.5167   -2.5459   23.3332 H   0  0  0  0  0  0  0  0  0  0  0  0
    8.7666   -2.9029   22.1426 H   0  0  0  0  0  0  0  0  0  0  0  0
    7.0601   -2.7250   20.5715 H   0  0  0  0  0  0  0  0  0  0  0  0
    5.9530   -1.9963   21.7709 H   0  0  0  0  0  0  0  0  0  0  0  0
    6.8882    0.2643   23.5640 H   0  0  0  0  0  0  0  0  0  0  0  0
    7.6667   -0.8657   24.6729 H   0  0  0  0  0  0  0  0  0  0  0  0
    8.6266    4.0086   23.7517 H   0  0  0  0  0  0  0  0  0  0  0  0
    9.7384    4.9904   24.7648 H   0  0  0  0  0  0  0  0  0  0  0  0
   10.2518    3.3727   24.1766 H   0  0  0  0  0  0  0  0  0  0  0  0
    9.5142    3.2826   26.5230 H   0  0  0  0  0  0  0  0  0  0  0  0
  1  2  2  0  0  0  0
  1  3  1  0  0  0  0
  2  4  1  0  0  0  0
  3 10  2  0  0  0  0
  4 11  2  0  0  0  0
  5  6  2  0  0  0  0
  5 12  1  0  0  0  0
  6 15  1  0  0  0  0
  7 13  1  0  0  0  0
  7 15  2  0  0  0  0
  8 10  1  0  0  0  0
  8 23  2  0  0  0  0
  9 14  2  0  0  0  0
  9 23  1  0  0  0  0
 10 11  1  0  0  0  0
 11 14  1  0  0  0  0
 12 13  2  0  0  0  0
 12 17  1  0  0  0  0
 13 21  1  0  0  0  0
 14 24  1  0  0  0  0
 15 31  1  0  0  0  0
 16 21  1  0  0  0  0
 16 24  1  0  0  0  0
 16 27  2  0  0  0  0
 17 25  1  0  0  0  0
 18 19  1  0  0  0  0
 18 21  1  0  0  0  0
 19 24  1  0  0  0  0
 20 21  1  0  0  0  0
 20 25  1  0  0  0  0
 22 26  1  0  0  0  0
 25 30  1  0  0  0  0
 26 30  1  0  0  0  0
 28 30  2  0  0  0  0
 29 30  2  0  0  0  0
  1 32  1  0  0  0  0
  2 33  1  0  0  0  0
  3 34  1  0  0  0  0
  4 35  1  0  0  0  0
  5 36  1  0  0  0  0
  6 37  1  0  0  0  0
  7 38  1  0  0  0  0
  8 39  1  0  0  0  0
  9 40  1  0  0  0  0
 17 41  1  0  0  0  0
 17 42  1  0  0  0  0
 18 43  1  0  0  0  0
 18 44  1  0  0  0  0
 19 45  1  0  0  0  0
 19 46  1  0  0  0  0
 20 47  1  0  0  0  0
 20 48  1  0  0  0  0
 22 49  1  0  0  0  0
 22 50  1  0  0  0  0
 22 51  1  0  0  0  0
 26 52  1  0  0  0  0
M  END
> <scaffold>
tetrahydroisoquinoline-5spiro-isoquinoline

> <compound>
LUO-POS-ed2cfb03-2

> <compound_smiles>
CNS(=O)(=O)N1Cc2ccc(cc2C3(C1)CCN(C3=O)c4cncc5c4cccc5)Cl

> <enantiomer_smiles>
CNS(=O)(=O)[N@]1Cc2ccc(cc2[C@@]3(C1)CCN(C3=O)c4cncc5c4cccc5)Cl

> <clash_score>
0

> <docking_score>
3.4028234663852886e+38

> <overlap_score>
0.9774573445320129

> <MMFF_internal_energy>
-47.52289840326934

> <docked_smiles>
CNS(=O)(=O)[N@]1Cc2ccc(cc2[C@@]3(C1)CCN(C3=O)c4cncc5c4cccc5)Cl

$$$$
MAT-POS-c7726e07-5_1
  -OEChem-01042202303D

 55 59  0     1  0  0  0  0  0999 V2000
    3.3444    2.6278   20.4409 C   0  0  0  0  0  0  0  0  0  0  0  0
    3.8974    1.9290   21.5048 C   0  0  0  0  0  0  0  0  0  0  0  0
    3.7877    2.4205   19.1658 C   0  0  0  0  0  0  0  0  0  0  0  0
    4.8986    1.0232   21.2985 C   0  0  0  0  0  0  0  0  0  0  0  0
   12.0781    0.0316   24.1532 C   0  0  0  0  0  0  0  0  0  0  0  0
   12.9147   -0.6032   23.2559 C   0  0  0  0  0  0  0  0  0  0  0  0
   11.0005   -1.4332   22.0435 C   0  0  0  0  0  0  0  0  0  0  0  0
    5.3288    1.2339   17.6062 C   0  0  0  0  0  0  0  0  0  0  0  0
    6.8449   -0.2893   18.3747 C   0  0  0  0  0  0  0  0  0  0  0  0
    4.8238    1.4906   18.9051 C   0  0  0  0  0  0  0  0  0  0  0  0
    5.3995    0.7732   19.9944 C   0  0  0  0  0  0  0  0  0  0  0  0
   10.7056   -0.0626   23.9890 C   0  0  0  0  0  0  0  0  0  0  0  0
   10.1421   -0.7766   22.9242 C   0  0  0  0  0  0  0  0  0  0  0  0
    6.4452   -0.1472   19.6975 C   0  0  0  0  0  0  0  0  0  0  0  0
   12.3697   -1.3298   22.2224 C   0  0  0  0  0  0  0  0  0  0  0  0
    8.2504    0.0168   21.4265 C   0  0  0  0  0  0  0  0  0  0  0  0
    6.7820    2.5959   25.0030 C   0  0  0  0  0  0  0  0  0  0  0  0
    9.9496    0.5589   24.9527 C   0  0  0  0  0  0  0  0  0  0  0  0
    8.0155   -2.1541   22.4325 C   0  0  0  0  0  0  0  0  0  0  0  0
    6.9880   -1.9367   21.3575 C   0  0  0  0  0  0  0  0  0  0  0  0
    7.8737   -0.1194   23.8825 C   0  0  0  0  0  0  0  0  0  0  0  0
    8.6253   -0.7606   22.6923 C   0  0  2  0  0  0  0  0  0  0  0  0
    4.5058    3.4347   25.5056 C   0  0  0  0  0  0  0  0  0  0  0  0
    7.8614    1.7130   25.5771 C   0  0  0  0  0  0  0  0  0  0  0  0
    6.3072    0.3768   17.3417 N   0  0  0  0  0  0  0  0  0  0  0  0
    7.2305   -0.6898   20.7785 N   0  0  0  0  0  0  0  0  0  0  0  0
    5.6736    2.6525   25.8345 N   0  0  0  0  0  0  0  0  0  0  0  0
    8.6625    1.0133   24.4989 N   0  3  3  0  0  0  0  0  0  0  0  0
    8.7596    1.0926   21.1315 O   0  0  0  0  0  0  0  0  0  0  0  0
    6.8918    3.1841   23.9305 O   0  0  0  0  0  0  0  0  0  0  0  0
   13.4297   -2.1368   21.1057 Cl  0  0  0  0  0  0  0  0  0  0  0  0
    2.5443    3.3508   20.6368 H   0  0  0  0  0  0  0  0  0  0  0  0
    3.5189    2.1137   22.5166 H   0  0  0  0  0  0  0  0  0  0  0  0
    3.3421    2.9744   18.3363 H   0  0  0  0  0  0  0  0  0  0  0  0
    5.3131    0.4893   22.1569 H   0  0  0  0  0  0  0  0  0  0  0  0
   12.5050    0.6048   24.9681 H   0  0  0  0  0  0  0  0  0  0  0  0
   13.9930   -0.5095   23.3724 H   0  0  0  0  0  0  0  0  0  0  0  0
   10.6142   -2.0081   21.2166 H   0  0  0  0  0  0  0  0  0  0  0  0
    4.9151    1.7511   16.7471 H   0  0  0  0  0  0  0  0  0  0  0  0
    7.6455   -0.9765   18.1038 H   0  0  0  0  0  0  0  0  0  0  0  0
    9.7670   -0.1152   25.8332 H   0  0  0  0  0  0  0  0  0  0  0  0
   10.4598    1.4695   25.3669 H   0  0  0  0  0  0  0  0  0  0  0  0
    7.5772   -2.6002   23.3388 H   0  0  0  0  0  0  0  0  0  0  0  0
    8.7543   -2.8832   22.0693 H   0  0  0  0  0  0  0  0  0  0  0  0
    7.0238   -2.7509   20.5939 H   0  0  0  0  0  0  0  0  0  0  0  0
    5.9557   -1.9486   21.7819 H   0  0  0  0  0  0  0  0  0  0  0  0
    6.9025    0.3058   23.5774 H   0  0  0  0  0  0  0  0  0  0  0  0
    7.6854   -0.8462   24.6923 H   0  0  0  0  0  0  0  0  0  0  0  0
    4.6058    4.4423   25.9355 H   0  0  0  0  0  0  0  0  0  0  0  0
    4.4113    3.5103   24.4123 H   0  0  0  0  0  0  0  0  0  0  0  0
    3.6101    2.9474   25.9183 H   0  0  0  0  0  0  0  0  0  0  0  0
    7.4220    0.9185   26.1866 H   0  0  0  0  0  0  0  0  0  0  0  0
    8.5620    2.3059   26.1715 H   0  0  0  0  0  0  0  0  0  0  0  0
    5.6632    2.1115   26.6945 H   0  0  0  0  0  0  0  0  0  0  0  0
    8.7911    1.7237   23.7513 H   0  0  0  0  0  0  0  0  0  0  0  0
  1  2  2  0  0  0  0
  1  3  1  0  0  0  0
  2  4  1  0  0  0  0
  3 10  2  0  0  0  0
  4 11  2  0  0  0  0
  5  6  2  0  0  0  0
  5 12  1  0  0  0  0
  6 15  1  0  0  0  0
  7 13  1  0  0  0  0
  7 15  2  0  0  0  0
  8 10  1  0  0  0  0
  8 25  2  0  0  0  0
  9 14  2  0  0  0  0
  9 25  1  0  0  0  0
 10 11  1  0  0  0  0
 11 14  1  0  0  0  0
 12 13  2  0  0  0  0
 12 18  1  0  0  0  0
 13 22  1  6  0  0  0
 14 26  1  0  0  0  0
 15 31  1  0  0  0  0
 16 22  1  1  0  0  0
 16 26  1  0  0  0  0
 16 29  2  0  0  0  0
 17 24  1  0  0  0  0
 17 27  1  0  0  0  0
 17 30  2  0  0  0  0
 18 28  1  0  0  0  0
 19 20  1  0  0  0  0
 19 22  1  1  0  0  0
 20 26  1  0  0  0  0
 21 22  1  6  0  0  0
 21 28  1  0  0  0  0
 23 27  1  0  0  0  0
 24 28  1  0  0  0  0
  1 32  1  0  0  0  0
  2 33  1  0  0  0  0
  3 34  1  0  0  0  0
  4 35  1  0  0  0  0
  5 36  1  0  0  0  0
  6 37  1  0  0  0  0
  7 38  1  0  0  0  0
  8 39  1  0  0  0  0
  9 40  1  0  0  0  0
 18 41  1  0  0  0  0
 18 42  1  0  0  0  0
 19 43  1  0  0  0  0
 19 44  1  0  0  0  0
 20 45  1  0  0  0  0
 20 46  1  0  0  0  0
 21 47  1  0  0  0  0
 21 48  1  0  0  0  0
 23 49  1  0  0  0  0
 23 50  1  0  0  0  0
 23 51  1  0  0  0  0
 24 52  1  0  0  0  0
 24 53  1  0  0  0  0
 27 54  1  0  0  0  0
 28 55  1  0  0  0  0
M  CHG  1  28   1
M  END
> <scaffold>
tetrahydroisoquinoline-5spiro-isoquinoline

> <compound>
MAT-POS-c7726e07-5

> <compound_smiles>
CNC(=O)CN1Cc2ccc(cc2[C@]3(C1)CCN(C3=O)c4cncc5c4cccc5)Cl

> <enantiomer_smiles>
CNC(=O)C[N@@]1Cc2ccc(cc2[C@]3(C1)CCN(C3=O)c4cncc5c4cccc5)Cl

> <clash_score>
0

> <docking_score>
3.4028234663852886e+38

> <overlap_score>
0.9768962860107422

> <MMFF_internal_energy>
156.1738075948269

> <docked_smiles>
CNC(=O)C[N@H+]1Cc2ccc(cc2[C@]3(C1)CCN(C3=O)c4cncc5c4cccc5)Cl

$$$$
LUO-POS-9931618f-1_1
  -OEChem-01042202303D

 53 57  0     1  0  0  0  0  0999 V2000
    3.3444    2.6278   20.4409 C   0  0  0  0  0  0  0  0  0  0  0  0
    3.8974    1.9290   21.5048 C   0  0  0  0  0  0  0  0  0  0  0  0
    3.7877    2.4205   19.1658 C   0  0  0  0  0  0  0  0  0  0  0  0
    4.8986    1.0232   21.2985 C   0  0  0  0  0  0  0  0  0  0  0  0
   12.0781    0.0316   24.1532 C   0  0  0  0  0  0  0  0  0  0  0  0
   12.9147   -0.6032   23.2559 C   0  0  0  0  0  0  0  0  0  0  0  0
   11.0005   -1.4332   22.0435 C   0  0  0  0  0  0  0  0  0  0  0  0
    5.3288    1.2339   17.6062 C   0  0  0  0  0  0  0  0  0  0  0  0
    6.8449   -0.2893   18.3747 C   0  0  0  0  0  0  0  0  0  0  0  0
    4.8238    1.4906   18.9051 C   0  0  0  0  0  0  0  0  0  0  0  0
    5.3995    0.7732   19.9944 C   0  0  0  0  0  0  0  0  0  0  0  0
   10.7056   -0.0626   23.9890 C   0  0  0  0  0  0  0  0  0  0  0  0
   10.1421   -0.7766   22.9242 C   0  0  0  0  0  0  0  0  0  0  0  0
    6.4452   -0.1472   19.6975 C   0  0  0  0  0  0  0  0  0  0  0  0
   12.3697   -1.3298   22.2224 C   0  0  0  0  0  0  0  0  0  0  0  0
    9.9496    0.5589   24.9527 C   0  0  0  0  0  0  0  0  0  0  0  0
    8.2504    0.0168   21.4265 C   0  0  0  0  0  0  0  0  0  0  0  0
    7.2900    2.1445   26.0369 C   0  0  0  0  0  0  0  0  0  0  0  0
    8.0155   -2.1541   22.4325 C   0  0  0  0  0  0  0  0  0  0  0  0
    6.9880   -1.9367   21.3575 C   0  0  0  0  0  0  0  0  0  0  0  0
    7.8737   -0.1194   23.8825 C   0  0  0  0  0  0  0  0  0  0  0  0
    8.6253   -0.7606   22.6923 C   0  0  1  0  0  0  0  0  0  0  0  0
    6.5711    3.5767   27.9463 C   0  0  0  0  0  0  0  0  0  0  0  0
    8.0937    2.2235   24.7641 C   0  0  0  0  0  0  0  0  0  0  0  0
    6.3072    0.3768   17.3417 N   0  0  0  0  0  0  0  0  0  0  0  0
    7.2305   -0.6898   20.7785 N   0  0  0  0  0  0  0  0  0  0  0  0
    8.6625    1.0133   24.4989 N   0  0  0  0  0  0  0  0  0  0  0  0
    7.2701    3.3635   26.6994 N   0  0  0  0  0  0  0  0  0  0  0  0
   10.3233    0.7301   26.1084 O   0  0  0  0  0  0  0  0  0  0  0  0
    8.8205    1.0412   21.0776 O   0  0  0  0  0  0  0  0  0  0  0  0
    6.7292    1.1210   26.4195 O   0  0  0  0  0  0  0  0  0  0  0  0
   13.4288   -2.1465   21.1124 Cl  0  0  0  0  0  0  0  0  0  0  0  0
    2.5443    3.3508   20.6368 H   0  0  0  0  0  0  0  0  0  0  0  0
    3.5189    2.1137   22.5166 H   0  0  0  0  0  0  0  0  0  0  0  0
    3.3421    2.9744   18.3363 H   0  0  0  0  0  0  0  0  0  0  0  0
    5.3131    0.4893   22.1569 H   0  0  0  0  0  0  0  0  0  0  0  0
   12.5188    0.5961   24.9710 H   0  0  0  0  0  0  0  0  0  0  0  0
   13.9920   -0.5226   23.3817 H   0  0  0  0  0  0  0  0  0  0  0  0
   10.6143   -2.0253   21.2266 H   0  0  0  0  0  0  0  0  0  0  0  0
    4.9151    1.7511   16.7471 H   0  0  0  0  0  0  0  0  0  0  0  0
    7.6455   -0.9765   18.1038 H   0  0  0  0  0  0  0  0  0  0  0  0
    7.5128   -2.5277   23.3386 H   0  0  0  0  0  0  0  0  0  0  0  0
    8.7593   -2.9102   22.1430 H   0  0  0  0  0  0  0  0  0  0  0  0
    7.0602   -2.7255   20.5716 H   0  0  0  0  0  0  0  0  0  0  0  0
    5.9526   -1.9964   21.7706 H   0  0  0  0  0  0  0  0  0  0  0  0
    6.9217    0.3182   23.5732 H   0  0  0  0  0  0  0  0  0  0  0  0
    7.6678   -0.8543   24.6617 H   0  0  0  0  0  0  0  0  0  0  0  0
    5.5409    3.9020   27.7387 H   0  0  0  0  0  0  0  0  0  0  0  0
    6.5506    2.6385   28.5201 H   0  0  0  0  0  0  0  0  0  0  0  0
    7.0898    4.3520   28.5293 H   0  0  0  0  0  0  0  0  0  0  0  0
    7.4419    2.5111   23.9339 H   0  0  0  0  0  0  0  0  0  0  0  0
    8.8897    2.9659   24.8736 H   0  0  0  0  0  0  0  0  0  0  0  0
    7.7718    4.1449   26.2876 H   0  0  0  0  0  0  0  0  0  0  0  0
  1  2  2  0  0  0  0
  1  3  1  0  0  0  0
  2  4  1  0  0  0  0
  3 10  2  0  0  0  0
  4 11  2  0  0  0  0
  5  6  2  0  0  0  0
  5 12  1  0  0  0  0
  6 15  1  0  0  0  0
  7 13  1  0  0  0  0
  7 15  2  0  0  0  0
  8 10  1  0  0  0  0
  8 25  2  0  0  0  0
  9 14  2  0  0  0  0
  9 25  1  0  0  0  0
 10 11  1  0  0  0  0
 11 14  1  0  0  0  0
 12 13  2  0  0  0  0
 12 16  1  0  0  0  0
 13 22  1  1  0  0  0
 14 26  1  0  0  0  0
 15 32  1  0  0  0  0
 16 27  1  0  0  0  0
 16 29  2  0  0  0  0
 17 22  1  1  0  0  0
 17 26  1  0  0  0  0
 17 30  2  0  0  0  0
 18 24  1  0  0  0  0
 18 28  1  0  0  0  0
 18 31  2  0  0  0  0
 19 20  1  0  0  0  0
 19 22  1  6  0  0  0
 20 26  1  0  0  0  0
 21 22  1  6  0  0  0
 21 27  1  0  0  0  0
 23 28  1  0  0  0  0
 24 27  1  0  0  0  0
  1 33  1  0  0  0  0
  2 34  1  0  0  0  0
  3 35  1  0  0  0  0
  4 36  1  0  0  0  0
  5 37  1  0  0  0  0
  6 38  1  0  0  0  0
  7 39  1  0  0  0  0
  8 40  1  0  0  0  0
  9 41  1  0  0  0  0
 19 42  1  0  0  0  0
 19 43  1  0  0  0  0
 20 44  1  0  0  0  0
 20 45  1  0  0  0  0
 21 46  1  0  0  0  0
 21 47  1  0  0  0  0
 23 48  1  0  0  0  0
 23 49  1  0  0  0  0
 23 50  1  0  0  0  0
 24 51  1  0  0  0  0
 24 52  1  0  0  0  0
 28 53  1  0  0  0  0
M  END
> <scaffold>
tetrahydroisoquinoline-5spiro-isoquinoline

> <compound>
LUO-POS-9931618f-1

> <compound_smiles>
CNC(=O)CN1C[C@]2(CCN(C2=O)c3cncc4c3cccc4)c5cc(ccc5C1=O)Cl

> <enantiomer_smiles>
CNC(=O)CN1C[C@]2(CCN(C2=O)c3cncc4c3cccc4)c5cc(ccc5C1=O)Cl

> <clash_score>
0

> <docking_score>
3.4028234663852886e+38

> <overlap_score>
0.9896502494812012

> <MMFF_internal_energy>
158.84807719662504

> <docked_smiles>
CNC(=O)CN1C[C@]2(CCN(C2=O)c3cncc4c3cccc4)c5cc(ccc5C1=O)Cl

$$$$
MAT-POS-1bed62cf-3_1
  -OEChem-01042202303D

 54 58  0     1  0  0  0  0  0999 V2000
    3.3444    2.6278   20.4409 C   0  0  0  0  0  0  0  0  0  0  0  0
    3.8974    1.9290   21.5048 C   0  0  0  0  0  0  0  0  0  0  0  0
    3.7877    2.4205   19.1658 C   0  0  0  0  0  0  0  0  0  0  0  0
    4.8986    1.0232   21.2985 C   0  0  0  0  0  0  0  0  0  0  0  0
   12.0781    0.0316   24.1532 C   0  0  0  0  0  0  0  0  0  0  0  0
   12.9147   -0.6032   23.2559 C   0  0  0  0  0  0  0  0  0  0  0  0
   11.0005   -1.4332   22.0435 C   0  0  0  0  0  0  0  0  0  0  0  0
    5.3288    1.2339   17.6062 C   0  0  0  0  0  0  0  0  0  0  0  0
    6.8449   -0.2893   18.3747 C   0  0  0  0  0  0  0  0  0  0  0  0
    4.8238    1.4906   18.9051 C   0  0  0  0  0  0  0  0  0  0  0  0
    5.3995    0.7732   19.9944 C   0  0  0  0  0  0  0  0  0  0  0  0
   10.7056   -0.0626   23.9890 C   0  0  0  0  0  0  0  0  0  0  0  0
   10.1421   -0.7766   22.9242 C   0  0  0  0  0  0  0  0  0  0  0  0
    6.4452   -0.1472   19.6975 C   0  0  0  0  0  0  0  0  0  0  0  0
   12.3697   -1.3298   22.2224 C   0  0  0  0  0  0  0  0  0  0  0  0
    6.9880   -1.9367   21.3575 C   0  0  0  0  0  0  0  0  0  0  0  0
    8.2504    0.0168   21.4265 C   0  0  0  0  0  0  0  0  0  0  0  0
    8.9513    3.4981   24.2976 C   0  0  0  0  0  0  0  0  0  0  0  0
    9.9496    0.5589   24.9527 C   0  0  0  0  0  0  0  0  0  0  0  0
    8.0155   -2.1541   22.4325 C   0  0  0  0  0  0  0  0  0  0  0  0
    7.8737   -0.1194   23.8825 C   0  0  0  0  0  0  0  0  0  0  0  0
    8.6253   -0.7606   22.6923 C   0  0  3  0  0  0  0  0  0  0  0  0
    9.2663    5.9201   23.8828 C   0  0  0  0  0  0  0  0  0  0  0  0
    8.7413    2.1984   23.5622 C   0  0  0  0  0  0  0  0  0  0  0  0
    6.3072    0.3768   17.3417 N   0  0  0  0  0  0  0  0  0  0  0  0
    7.2305   -0.6898   20.7785 N   0  0  0  0  0  0  0  0  0  0  0  0
    9.0620    4.5676   23.4217 N   0  0  0  0  0  0  0  0  0  0  0  0
    8.6625    1.0133   24.4989 N   0  3  3  0  0  0  0  0  0  0  0  0
    6.1188   -2.7567   21.1098 O   0  0  0  0  0  0  0  0  0  0  0  0
    8.7914    1.0561   21.0966 O   0  0  0  0  0  0  0  0  0  0  0  0
    9.0123    3.5778   25.5216 O   0  0  0  0  0  0  0  0  0  0  0  0
   13.4296   -2.1445   21.1113 Cl  0  0  0  0  0  0  0  0  0  0  0  0
    2.5443    3.3508   20.6368 H   0  0  0  0  0  0  0  0  0  0  0  0
    3.5189    2.1137   22.5166 H   0  0  0  0  0  0  0  0  0  0  0  0
    3.3421    2.9744   18.3363 H   0  0  0  0  0  0  0  0  0  0  0  0
    5.3131    0.4893   22.1569 H   0  0  0  0  0  0  0  0  0  0  0  0
   12.5048    0.5918   24.9771 H   0  0  0  0  0  0  0  0  0  0  0  0
   13.9929   -0.5219   23.3815 H   0  0  0  0  0  0  0  0  0  0  0  0
   10.6149   -2.0225   21.2265 H   0  0  0  0  0  0  0  0  0  0  0  0
    4.9151    1.7511   16.7471 H   0  0  0  0  0  0  0  0  0  0  0  0
    7.6455   -0.9765   18.1038 H   0  0  0  0  0  0  0  0  0  0  0  0
    9.7388   -0.1148   25.8240 H   0  0  0  0  0  0  0  0  0  0  0  0
   10.4784    1.4538   25.3751 H   0  0  0  0  0  0  0  0  0  0  0  0
    7.5546   -2.5990   23.3174 H   0  0  0  0  0  0  0  0  0  0  0  0
    8.7510   -2.8591   22.0307 H   0  0  0  0  0  0  0  0  0  0  0  0
    6.9018    0.3015   23.5753 H   0  0  0  0  0  0  0  0  0  0  0  0
    7.6947   -0.8554   24.6826 H   0  0  0  0  0  0  0  0  0  0  0  0
    8.2924    6.4138   24.0158 H   0  0  0  0  0  0  0  0  0  0  0  0
    9.8027    5.9029   24.8430 H   0  0  0  0  0  0  0  0  0  0  0  0
    9.8600    6.4745   23.1411 H   0  0  0  0  0  0  0  0  0  0  0  0
    9.5819    1.9978   22.8921 H   0  0  0  0  0  0  0  0  0  0  0  0
    7.8040    2.2266   22.9996 H   0  0  0  0  0  0  0  0  0  0  0  0
    9.0226    4.4021   22.4200 H   0  0  0  0  0  0  0  0  0  0  0  0
    8.1101    1.3444   25.3123 H   0  0  0  0  0  0  0  0  0  0  0  0
  1  2  2  0  0  0  0
  1  3  1  0  0  0  0
  2  4  1  0  0  0  0
  3 10  2  0  0  0  0
  4 11  2  0  0  0  0
  5  6  2  0  0  0  0
  5 12  1  0  0  0  0
  6 15  1  0  0  0  0
  7 13  1  0  0  0  0
  7 15  2  0  0  0  0
  8 10  1  0  0  0  0
  8 25  2  0  0  0  0
  9 14  2  0  0  0  0
  9 25  1  0  0  0  0
 10 11  1  0  0  0  0
 11 14  1  0  0  0  0
 12 13  2  0  0  0  0
 12 19  1  0  0  0  0
 13 22  1  0  0  0  0
 14 26  1  0  0  0  0
 15 32  1  0  0  0  0
 16 20  1  0  0  0  0
 16 26  1  0  0  0  0
 16 29  2  0  0  0  0
 17 22  1  0  0  0  0
 17 26  1  0  0  0  0
 17 30  2  0  0  0  0
 18 24  1  0  0  0  0
 18 27  1  0  0  0  0
 18 31  2  0  0  0  0
 19 28  1  0  0  0  0
 20 22  1  0  0  0  0
 21 22  1  0  0  0  0
 21 28  1  0  0  0  0
 23 27  1  0  0  0  0
 24 28  1  0  0  0  0
  1 33  1  0  0  0  0
  2 34  1  0  0  0  0
  3 35  1  0  0  0  0
  4 36  1  0  0  0  0
  5 37  1  0  0  0  0
  6 38  1  0  0  0  0
  7 39  1  0  0  0  0
  8 40  1  0  0  0  0
  9 41  1  0  0  0  0
 19 42  1  0  0  0  0
 19 43  1  0  0  0  0
 20 44  1  0  0  0  0
 20 45  1  0  0  0  0
 21 46  1  0  0  0  0
 21 47  1  0  0  0  0
 23 48  1  0  0  0  0
 23 49  1  0  0  0  0
 23 50  1  0  0  0  0
 24 51  1  0  0  0  0
 24 52  1  0  0  0  0
 27 53  1  0  0  0  0
 28 54  1  0  0  0  0
M  CHG  1  28   1
M  END
> <scaffold>
tetrahydroisoquinoline-5spiro-isoquinoline

> <compound>
MAT-POS-1bed62cf-3

> <compound_smiles>
CNC(=O)CN1Cc2ccc(cc2C3(C1)CC(=O)N(C3=O)c4cncc5c4cccc5)Cl

> <enantiomer_smiles>
CNC(=O)C[N@]1Cc2ccc(cc2[C@@]3(C1)CC(=O)N(C3=O)c4cncc5c4cccc5)Cl

> <clash_score>
0

> <docking_score>
3.4028234663852886e+38

> <overlap_score>
1.0

> <MMFF_internal_energy>
125.10636333848213

> <docked_smiles>
CNC(=O)C[N@@H+]1Cc2ccc(cc2[C@@]3(C1)CC(=O)N(C3=O)c4cncc5c4cccc5)Cl

$$$$
VLA-MRT-8c78ee15-3_1
  -OEChem-01042202303D

 53 57  0     1  0  0  0  0  0999 V2000
    3.3444    2.6278   20.4409 C   0  0  0  0  0  0  0  0  0  0  0  0
    3.8974    1.9290   21.5048 C   0  0  0  0  0  0  0  0  0  0  0  0
    3.7877    2.4205   19.1658 C   0  0  0  0  0  0  0  0  0  0  0  0
    4.8986    1.0232   21.2985 C   0  0  0  0  0  0  0  0  0  0  0  0
   12.0781    0.0316   24.1532 C   0  0  0  0  0  0  0  0  0  0  0  0
   12.9147   -0.6032   23.2559 C   0  0  0  0  0  0  0  0  0  0  0  0
   11.0005   -1.4332   22.0435 C   0  0  0  0  0  0  0  0  0  0  0  0
    5.3288    1.2339   17.6062 C   0  0  0  0  0  0  0  0  0  0  0  0
    6.8449   -0.2893   18.3747 C   0  0  0  0  0  0  0  0  0  0  0  0
    4.8238    1.4906   18.9051 C   0  0  0  0  0  0  0  0  0  0  0  0
    5.3995    0.7732   19.9944 C   0  0  0  0  0  0  0  0  0  0  0  0
   10.7056   -0.0626   23.9890 C   0  0  0  0  0  0  0  0  0  0  0  0
   10.1421   -0.7766   22.9242 C   0  0  0  0  0  0  0  0  0  0  0  0
    6.4452   -0.1472   19.6975 C   0  0  0  0  0  0  0  0  0  0  0  0
   12.3697   -1.3298   22.2224 C   0  0  0  0  0  0  0  0  0  0  0  0
    8.2504    0.0168   21.4265 C   0  0  0  0  0  0  0  0  0  0  0  0
    6.9880   -1.9367   21.3575 C   0  0  0  0  0  0  0  0  0  0  0  0
    6.7947    2.5825   24.9432 C   0  0  0  0  0  0  0  0  0  0  0  0
    9.9496    0.5589   24.9527 C   0  0  0  0  0  0  0  0  0  0  0  0
    7.8737   -0.1194   23.8825 C   0  0  0  0  0  0  0  0  0  0  0  0
    8.6253   -0.7606   22.6923 C   0  0  2  0  0  0  0  0  0  0  0  0
    4.5155    3.4517   25.3755 C   0  0  0  0  0  0  0  0  0  0  0  0
    7.8606    1.7190   25.5699 C   0  0  0  0  0  0  0  0  0  0  0  0
    6.3072    0.3768   17.3417 N   0  0  0  0  0  0  0  0  0  0  0  0
    8.0155   -2.1541   22.4325 N   0  0  0  0  0  0  0  0  0  0  0  0
    7.2305   -0.6898   20.7785 N   0  0  0  0  0  0  0  0  0  0  0  0
    5.6740    2.6784   25.7544 N   0  0  0  0  0  0  0  0  0  0  0  0
    8.6625    1.0133   24.4989 N   0  3  3  0  0  0  0  0  0  0  0  0
    8.7750    1.0691   21.1220 O   0  0  0  0  0  0  0  0  0  0  0  0
    6.1667   -2.7941   21.1181 O   0  0  0  0  0  0  0  0  0  0  0  0
    6.9240    3.1254   23.8493 O   0  0  0  0  0  0  0  0  0  0  0  0
   13.4289   -2.1406   21.1079 Cl  0  0  0  0  0  0  0  0  0  0  0  0
    2.5443    3.3508   20.6368 H   0  0  0  0  0  0  0  0  0  0  0  0
    3.5189    2.1137   22.5166 H   0  0  0  0  0  0  0  0  0  0  0  0
    3.3421    2.9744   18.3363 H   0  0  0  0  0  0  0  0  0  0  0  0
    5.3131    0.4893   22.1569 H   0  0  0  0  0  0  0  0  0  0  0  0
   12.5036    0.5983   24.9737 H   0  0  0  0  0  0  0  0  0  0  0  0
   13.9925   -0.5165   23.3776 H   0  0  0  0  0  0  0  0  0  0  0  0
   10.6065   -2.0180   21.2235 H   0  0  0  0  0  0  0  0  0  0  0  0
    4.9151    1.7511   16.7471 H   0  0  0  0  0  0  0  0  0  0  0  0
    7.6455   -0.9765   18.1038 H   0  0  0  0  0  0  0  0  0  0  0  0
    9.7624   -0.1217   25.8233 H   0  0  0  0  0  0  0  0  0  0  0  0
   10.4587    1.4658   25.3695 H   0  0  0  0  0  0  0  0  0  0  0  0
    6.8927    0.2858   23.5681 H   0  0  0  0  0  0  0  0  0  0  0  0
    7.6734   -0.8524   24.6878 H   0  0  0  0  0  0  0  0  0  0  0  0
    4.6141    4.4757   25.7650 H   0  0  0  0  0  0  0  0  0  0  0  0
    4.4381    3.4826   24.2787 H   0  0  0  0  0  0  0  0  0  0  0  0
    3.6110    2.9860   25.7939 H   0  0  0  0  0  0  0  0  0  0  0  0
    7.4077    0.9524   26.2047 H   0  0  0  0  0  0  0  0  0  0  0  0
    8.5550    2.3328   26.1502 H   0  0  0  0  0  0  0  0  0  0  0  0
    8.2310   -2.9438   22.8428 H   0  0  0  0  0  0  0  0  0  0  0  0
    5.6475    2.1734   26.6356 H   0  0  0  0  0  0  0  0  0  0  0  0
    8.7918    1.7158   23.7456 H   0  0  0  0  0  0  0  0  0  0  0  0
  1  2  2  0  0  0  0
  1  3  1  0  0  0  0
  2  4  1  0  0  0  0
  3 10  2  0  0  0  0
  4 11  2  0  0  0  0
  5  6  2  0  0  0  0
  5 12  1  0  0  0  0
  6 15  1  0  0  0  0
  7 13  1  0  0  0  0
  7 15  2  0  0  0  0
  8 10  1  0  0  0  0
  8 24  2  0  0  0  0
  9 14  2  0  0  0  0
  9 24  1  0  0  0  0
 10 11  1  0  0  0  0
 11 14  1  0  0  0  0
 12 13  2  0  0  0  0
 12 19  1  0  0  0  0
 13 21  1  6  0  0  0
 14 26  1  0  0  0  0
 15 32  1  0  0  0  0
 16 21  1  1  0  0  0
 16 26  1  0  0  0  0
 16 29  2  0  0  0  0
 17 25  1  0  0  0  0
 17 26  1  0  0  0  0
 17 30  2  0  0  0  0
 18 23  1  0  0  0  0
 18 27  1  0  0  0  0
 18 31  2  0  0  0  0
 19 28  1  0  0  0  0
 20 21  1  6  0  0  0
 20 28  1  0  0  0  0
 21 25  1  1  0  0  0
 22 27  1  0  0  0  0
 23 28  1  0  0  0  0
  1 33  1  0  0  0  0
  2 34  1  0  0  0  0
  3 35  1  0  0  0  0
  4 36  1  0  0  0  0
  5 37  1  0  0  0  0
  6 38  1  0  0  0  0
  7 39  1  0  0  0  0
  8 40  1  0  0  0  0
  9 41  1  0  0  0  0
 19 42  1  0  0  0  0
 19 43  1  0  0  0  0
 20 44  1  0  0  0  0
 20 45  1  0  0  0  0
 22 46  1  0  0  0  0
 22 47  1  0  0  0  0
 22 48  1  0  0  0  0
 23 49  1  0  0  0  0
 23 50  1  0  0  0  0
 25 51  1  0  0  0  0
 27 52  1  0  0  0  0
 28 53  1  0  0  0  0
M  CHG  1  28   1
M  END
> <scaffold>
tetrahydroisoquinoline-5spiro-isoquinoline

> <compound>
VLA-MRT-8c78ee15-3

> <compound_smiles>
CNC(=O)CN1Cc2ccc(cc2[C@]3(C1)C(=O)N(C(=O)N3)c4cncc5c4cccc5)Cl

> <enantiomer_smiles>
CNC(=O)C[N@@]1Cc2ccc(cc2[C@]3(C1)C(=O)N(C(=O)N3)c4cncc5c4cccc5)Cl

> <clash_score>
0

> <docking_score>
3.4028234663852886e+38

> <overlap_score>
1.0

> <MMFF_internal_energy>
152.1039451941682

> <docked_smiles>
CNC(=O)C[N@H+]1Cc2ccc(cc2[C@]3(C1)C(=O)N(C(=O)N3)c4cncc5c4cccc5)Cl

$$$$
LUO-POS-868e8996-11_1
  -OEChem-01042202303D

 55 59  0     1  0  0  0  0  0999 V2000
    3.3444    2.6278   20.4409 C   0  0  0  0  0  0  0  0  0  0  0  0
    3.8974    1.9290   21.5048 C   0  0  0  0  0  0  0  0  0  0  0  0
    3.7877    2.4205   19.1658 C   0  0  0  0  0  0  0  0  0  0  0  0
    4.8986    1.0232   21.2985 C   0  0  0  0  0  0  0  0  0  0  0  0
   12.0781    0.0316   24.1532 C   0  0  0  0  0  0  0  0  0  0  0  0
   12.9147   -0.6032   23.2559 C   0  0  0  0  0  0  0  0  0  0  0  0
   11.0005   -1.4332   22.0435 C   0  0  0  0  0  0  0  0  0  0  0  0
    5.3288    1.2339   17.6062 C   0  0  0  0  0  0  0  0  0  0  0  0
    6.8449   -0.2893   18.3747 C   0  0  0  0  0  0  0  0  0  0  0  0
    4.8238    1.4906   18.9051 C   0  0  0  0  0  0  0  0  0  0  0  0
    5.3995    0.7732   19.9944 C   0  0  0  0  0  0  0  0  0  0  0  0
   10.7056   -0.0626   23.9890 C   0  0  0  0  0  0  0  0  0  0  0  0
   10.1421   -0.7766   22.9242 C   0  0  0  0  0  0  0  0  0  0  0  0
    6.4452   -0.1472   19.6975 C   0  0  0  0  0  0  0  0  0  0  0  0
   12.3697   -1.3298   22.2224 C   0  0  0  0  0  0  0  0  0  0  0  0
    8.2504    0.0168   21.4265 C   0  0  0  0  0  0  0  0  0  0  0  0
    6.7820    2.5959   25.0030 C   0  0  0  0  0  0  0  0  0  0  0  0
    9.9496    0.5589   24.9527 C   0  0  0  0  0  0  0  0  0  0  0  0
    8.0155   -2.1541   22.4325 C   0  0  0  0  0  0  0  0  0  0  0  0
    6.9880   -1.9367   21.3575 C   0  0  0  0  0  0  0  0  0  0  0  0
    7.8737   -0.1194   23.8825 C   0  0  0  0  0  0  0  0  0  0  0  0
    8.6253   -0.7606   22.6923 C   0  0  2  0  0  0  0  0  0  0  0  0
    4.5058    3.4347   25.5056 C   0  0  0  0  0  0  0  0  0  0  0  0
    7.8614    1.7130   25.5771 C   0  0  0  0  0  0  0  0  0  0  0  0
    6.3072    0.3768   17.3417 N   0  0  0  0  0  0  0  0  0  0  0  0
    7.2305   -0.6898   20.7785 N   0  0  0  0  0  0  0  0  0  0  0  0
    5.6736    2.6525   25.8345 N   0  0  0  0  0  0  0  0  0  0  0  0
    8.6625    1.0133   24.4989 N   0  3  3  0  0  0  0  0  0  0  0  0
    8.7596    1.0926   21.1315 O   0  0  0  0  0  0  0  0  0  0  0  0
    6.8918    3.1841   23.9305 O   0  0  0  0  0  0  0  0  0  0  0  0
   13.4297   -2.1368   21.1057 Cl  0  0  0  0  0  0  0  0  0  0  0  0
    2.5443    3.3508   20.6368 H   0  0  0  0  0  0  0  0  0  0  0  0
    3.5189    2.1137   22.5166 H   0  0  0  0  0  0  0  0  0  0  0  0
    3.3421    2.9744   18.3363 H   0  0  0  0  0  0  0  0  0  0  0  0
    5.3131    0.4893   22.1569 H   0  0  0  0  0  0  0  0  0  0  0  0
   12.5050    0.6048   24.9681 H   0  0  0  0  0  0  0  0  0  0  0  0
   13.9930   -0.5095   23.3724 H   0  0  0  0  0  0  0  0  0  0  0  0
   10.6142   -2.0081   21.2166 H   0  0  0  0  0  0  0  0  0  0  0  0
    4.9151    1.7511   16.7471 H   0  0  0  0  0  0  0  0  0  0  0  0
    7.6455   -0.9765   18.1038 H   0  0  0  0  0  0  0  0  0  0  0  0
    9.7670   -0.1152   25.8332 H   0  0  0  0  0  0  0  0  0  0  0  0
   10.4598    1.4695   25.3669 H   0  0  0  0  0  0  0  0  0  0  0  0
    7.5772   -2.6002   23.3388 H   0  0  0  0  0  0  0  0  0  0  0  0
    8.7543   -2.8832   22.0693 H   0  0  0  0  0  0  0  0  0  0  0  0
    7.0238   -2.7509   20.5939 H   0  0  0  0  0  0  0  0  0  0  0  0
    5.9557   -1.9486   21.7819 H   0  0  0  0  0  0  0  0  0  0  0  0
    6.9025    0.3058   23.5774 H   0  0  0  0  0  0  0  0  0  0  0  0
    7.6854   -0.8462   24.6923 H   0  0  0  0  0  0  0  0  0  0  0  0
    4.6058    4.4423   25.9355 H   0  0  0  0  0  0  0  0  0  0  0  0
    4.4113    3.5103   24.4123 H   0  0  0  0  0  0  0  0  0  0  0  0
    3.6101    2.9474   25.9183 H   0  0  0  0  0  0  0  0  0  0  0  0
    7.4220    0.9185   26.1866 H   0  0  0  0  0  0  0  0  0  0  0  0
    8.5620    2.3059   26.1715 H   0  0  0  0  0  0  0  0  0  0  0  0
    5.6632    2.1115   26.6945 H   0  0  0  0  0  0  0  0  0  0  0  0
    8.7911    1.7237   23.7513 H   0  0  0  0  0  0  0  0  0  0  0  0
  1  2  2  0  0  0  0
  1  3  1  0  0  0  0
  2  4  1  0  0  0  0
  3 10  2  0  0  0  0
  4 11  2  0  0  0  0
  5  6  2  0  0  0  0
  5 12  1  0  0  0  0
  6 15  1  0  0  0  0
  7 13  1  0  0  0  0
  7 15  2  0  0  0  0
  8 10  1  0  0  0  0
  8 25  2  0  0  0  0
  9 14  2  0  0  0  0
  9 25  1  0  0  0  0
 10 11  1  0  0  0  0
 11 14  1  0  0  0  0
 12 13  2  0  0  0  0
 12 18  1  0  0  0  0
 13 22  1  6  0  0  0
 14 26  1  0  0  0  0
 15 31  1  0  0  0  0
 16 22  1  1  0  0  0
 16 26  1  0  0  0  0
 16 29  2  0  0  0  0
 17 24  1  0  0  0  0
 17 27  1  0  0  0  0
 17 30  2  0  0  0  0
 18 28  1  0  0  0  0
 19 20  1  0  0  0  0
 19 22  1  1  0  0  0
 20 26  1  0  0  0  0
 21 22  1  6  0  0  0
 21 28  1  0  0  0  0
 23 27  1  0  0  0  0
 24 28  1  0  0  0  0
  1 32  1  0  0  0  0
  2 33  1  0  0  0  0
  3 34  1  0  0  0  0
  4 35  1  0  0  0  0
  5 36  1  0  0  0  0
  6 37  1  0  0  0  0
  7 38  1  0  0  0  0
  8 39  1  0  0  0  0
  9 40  1  0  0  0  0
 18 41  1  0  0  0  0
 18 42  1  0  0  0  0
 19 43  1  0  0  0  0
 19 44  1  0  0  0  0
 20 45  1  0  0  0  0
 20 46  1  0  0  0  0
 21 47  1  0  0  0  0
 21 48  1  0  0  0  0
 23 49  1  0  0  0  0
 23 50  1  0  0  0  0
 23 51  1  0  0  0  0
 24 52  1  0  0  0  0
 24 53  1  0  0  0  0
 27 54  1  0  0  0  0
 28 55  1  0  0  0  0
M  CHG  1  28   1
M  END
> <scaffold>
tetrahydroisoquinoline-5spiro-isoquinoline

> <compound>
LUO-POS-868e8996-11

> <compound_smiles>
CNC(=O)CN1Cc2ccc(cc2[C@]3(C1)CCN(C3=O)c4cncc5c4cccc5)Cl

> <enantiomer_smiles>
CNC(=O)C[N@@]1Cc2ccc(cc2[C@]3(C1)CCN(C3=O)c4cncc5c4cccc5)Cl

> <clash_score>
0

> <docking_score>
3.4028234663852886e+38

> <overlap_score>
0.9768962860107422

> <MMFF_internal_energy>
156.1738075948269

> <docked_smiles>
CNC(=O)C[N@H+]1Cc2ccc(cc2[C@]3(C1)CCN(C3=O)c4cncc5c4cccc5)Cl

$$$$
LUO-POS-9931618f-2_1
  -OEChem-01042202303D

 53 57  0     1  0  0  0  0  0999 V2000
    3.3444    2.6278   20.4409 C   0  0  0  0  0  0  0  0  0  0  0  0
    3.8974    1.9290   21.5048 C   0  0  0  0  0  0  0  0  0  0  0  0
    3.7877    2.4205   19.1658 C   0  0  0  0  0  0  0  0  0  0  0  0
    4.8986    1.0232   21.2985 C   0  0  0  0  0  0  0  0  0  0  0  0
   12.0781    0.0316   24.1532 C   0  0  0  0  0  0  0  0  0  0  0  0
   12.9147   -0.6032   23.2559 C   0  0  0  0  0  0  0  0  0  0  0  0
   11.0005   -1.4332   22.0435 C   0  0  0  0  0  0  0  0  0  0  0  0
    5.3288    1.2339   17.6062 C   0  0  0  0  0  0  0  0  0  0  0  0
    6.8449   -0.2893   18.3747 C   0  0  0  0  0  0  0  0  0  0  0  0
    4.8238    1.4906   18.9051 C   0  0  0  0  0  0  0  0  0  0  0  0
    5.3995    0.7732   19.9944 C   0  0  0  0  0  0  0  0  0  0  0  0
   10.7056   -0.0626   23.9890 C   0  0  0  0  0  0  0  0  0  0  0  0
   10.1421   -0.7766   22.9242 C   0  0  0  0  0  0  0  0  0  0  0  0
    6.4452   -0.1472   19.6975 C   0  0  0  0  0  0  0  0  0  0  0  0
   12.3697   -1.3298   22.2224 C   0  0  0  0  0  0  0  0  0  0  0  0
    9.9496    0.5589   24.9527 C   0  0  0  0  0  0  0  0  0  0  0  0
    8.2504    0.0168   21.4265 C   0  0  0  0  0  0  0  0  0  0  0  0
    7.2792    2.1116   26.0358 C   0  0  0  0  0  0  0  0  0  0  0  0
    8.0155   -2.1541   22.4325 C   0  0  0  0  0  0  0  0  0  0  0  0
    6.9880   -1.9367   21.3575 C   0  0  0  0  0  0  0  0  0  0  0  0
    7.8737   -0.1194   23.8825 C   0  0  0  0  0  0  0  0  0  0  0  0
    8.6253   -0.7606   22.6923 C   0  0  2  0  0  0  0  0  0  0  0  0
    6.5261    3.5003   27.9641 C   0  0  0  0  0  0  0  0  0  0  0  0
    8.0895    2.2244   24.7698 C   0  0  0  0  0  0  0  0  0  0  0  0
    6.3072    0.3768   17.3417 N   0  0  0  0  0  0  0  0  0  0  0  0
    7.2305   -0.6898   20.7785 N   0  0  0  0  0  0  0  0  0  0  0  0
    8.6625    1.0133   24.4989 N   0  0  0  0  0  0  0  0  0  0  0  0
    7.2361    3.3189   26.7184 N   0  0  0  0  0  0  0  0  0  0  0  0
   10.3247    0.7292   26.1099 O   0  0  0  0  0  0  0  0  0  0  0  0
    8.7593    1.0936   21.1345 O   0  0  0  0  0  0  0  0  0  0  0  0
    6.7321    1.0733   26.3978 O   0  0  0  0  0  0  0  0  0  0  0  0
   13.4296   -2.1374   21.1065 Cl  0  0  0  0  0  0  0  0  0  0  0  0
    2.5443    3.3508   20.6368 H   0  0  0  0  0  0  0  0  0  0  0  0
    3.5189    2.1137   22.5166 H   0  0  0  0  0  0  0  0  0  0  0  0
    3.3421    2.9744   18.3363 H   0  0  0  0  0  0  0  0  0  0  0  0
    5.3131    0.4893   22.1569 H   0  0  0  0  0  0  0  0  0  0  0  0
   12.5188    0.5915   24.9741 H   0  0  0  0  0  0  0  0  0  0  0  0
   13.9920   -0.5158   23.3776 H   0  0  0  0  0  0  0  0  0  0  0  0
   10.6146   -2.0177   21.2211 H   0  0  0  0  0  0  0  0  0  0  0  0
    4.9151    1.7511   16.7471 H   0  0  0  0  0  0  0  0  0  0  0  0
    7.6455   -0.9765   18.1038 H   0  0  0  0  0  0  0  0  0  0  0  0
    7.5792   -2.6155   23.3299 H   0  0  0  0  0  0  0  0  0  0  0  0
    8.7859   -2.8460   22.0568 H   0  0  0  0  0  0  0  0  0  0  0  0
    7.0238   -2.7512   20.5947 H   0  0  0  0  0  0  0  0  0  0  0  0
    5.9568   -1.9488   21.7835 H   0  0  0  0  0  0  0  0  0  0  0  0
    6.9033    0.2704   23.5727 H   0  0  0  0  0  0  0  0  0  0  0  0
    7.7066   -0.8358   24.6899 H   0  0  0  0  0  0  0  0  0  0  0  0
    5.4924    3.8130   27.7553 H   0  0  0  0  0  0  0  0  0  0  0  0
    6.5168    2.5525   28.5221 H   0  0  0  0  0  0  0  0  0  0  0  0
    7.0290    4.2737   28.5633 H   0  0  0  0  0  0  0  0  0  0  0  0
    7.4384    2.5157   23.9403 H   0  0  0  0  0  0  0  0  0  0  0  0
    8.8731    2.9771   24.8968 H   0  0  0  0  0  0  0  0  0  0  0  0
    7.7281    4.1148   26.3229 H   0  0  0  0  0  0  0  0  0  0  0  0
  1  2  2  0  0  0  0
  1  3  1  0  0  0  0
  2  4  1  0  0  0  0
  3 10  2  0  0  0  0
  4 11  2  0  0  0  0
  5  6  2  0  0  0  0
  5 12  1  0  0  0  0
  6 15  1  0  0  0  0
  7 13  1  0  0  0  0
  7 15  2  0  0  0  0
  8 10  1  0  0  0  0
  8 25  2  0  0  0  0
  9 14  2  0  0  0  0
  9 25  1  0  0  0  0
 10 11  1  0  0  0  0
 11 14  1  0  0  0  0
 12 13  2  0  0  0  0
 12 16  1  0  0  0  0
 13 22  1  6  0  0  0
 14 26  1  0  0  0  0
 15 32  1  0  0  0  0
 16 27  1  0  0  0  0
 16 29  2  0  0  0  0
 17 22  1  6  0  0  0
 17 26  1  0  0  0  0
 17 30  2  0  0  0  0
 18 24  1  0  0  0  0
 18 28  1  0  0  0  0
 18 31  2  0  0  0  0
 19 20  1  0  0  0  0
 19 22  1  1  0  0  0
 20 26  1  0  0  0  0
 21 22  1  1  0  0  0
 21 27  1  0  0  0  0
 23 28  1  0  0  0  0
 24 27  1  0  0  0  0
  1 33  1  0  0  0  0
  2 34  1  0  0  0  0
  3 35  1  0  0  0  0
  4 36  1  0  0  0  0
  5 37  1  0  0  0  0
  6 38  1  0  0  0  0
  7 39  1  0  0  0  0
  8 40  1  0  0  0  0
  9 41  1  0  0  0  0
 19 42  1  0  0  0  0
 19 43  1  0  0  0  0
 20 44  1  0  0  0  0
 20 45  1  0  0  0  0
 21 46  1  0  0  0  0
 21 47  1  0  0  0  0
 23 48  1  0  0  0  0
 23 49  1  0  0  0  0
 23 50  1  0  0  0  0
 24 51  1  0  0  0  0
 24 52  1  0  0  0  0
 28 53  1  0  0  0  0
M  END
> <scaffold>
tetrahydroisoquinoline-5spiro-isoquinoline

> <compound>
LUO-POS-9931618f-2

> <compound_smiles>
CNC(=O)CN1C[C@@]2(CCN(C2=O)c3cncc4c3cccc4)c5cc(ccc5C1=O)Cl

> <enantiomer_smiles>
CNC(=O)CN1C[C@@]2(CCN(C2=O)c3cncc4c3cccc4)c5cc(ccc5C1=O)Cl

> <clash_score>
0

> <docking_score>
3.4028234663852886e+38

> <overlap_score>
0.9896607995033264

> <MMFF_internal_energy>
157.41263379231933

> <docked_smiles>
CNC(=O)CN1C[C@@]2(CCN(C2=O)c3cncc4c3cccc4)c5cc(ccc5C1=O)Cl

$$$$
EDJ-MED-fd8ed875-3_1
  -OEChem-01042202303D

 51 55  0     1  0  0  0  0  0999 V2000
    3.3444    2.6278   20.4409 C   0  0  0  0  0  0  0  0  0  0  0  0
    3.8974    1.9290   21.5048 C   0  0  0  0  0  0  0  0  0  0  0  0
    3.7877    2.4205   19.1658 C   0  0  0  0  0  0  0  0  0  0  0  0
    4.8986    1.0232   21.2985 C   0  0  0  0  0  0  0  0  0  0  0  0
   12.0781    0.0316   24.1532 C   0  0  0  0  0  0  0  0  0  0  0  0
   12.9147   -0.6032   23.2559 C   0  0  0  0  0  0  0  0  0  0  0  0
   11.0005   -1.4332   22.0435 C   0  0  0  0  0  0  0  0  0  0  0  0
    5.3288    1.2339   17.6062 C   0  0  0  0  0  0  0  0  0  0  0  0
    6.8449   -0.2893   18.3747 C   0  0  0  0  0  0  0  0  0  0  0  0
    4.8238    1.4906   18.9051 C   0  0  0  0  0  0  0  0  0  0  0  0
    5.3995    0.7732   19.9944 C   0  0  0  0  0  0  0  0  0  0  0  0
   10.7056   -0.0626   23.9890 C   0  0  0  0  0  0  0  0  0  0  0  0
   10.1421   -0.7766   22.9242 C   0  0  0  0  0  0  0  0  0  0  0  0
    6.4452   -0.1472   19.6975 C   0  0  0  0  0  0  0  0  0  0  0  0
   12.3697   -1.3298   22.2224 C   0  0  0  0  0  0  0  0  0  0  0  0
    8.0155   -2.1541   22.4325 C   0  0  0  0  0  0  0  0  0  0  0  0
    6.9880   -1.9367   21.3575 C   0  0  0  0  0  0  0  0  0  0  0  0
    9.9496    0.5589   24.9527 C   0  0  0  0  0  0  0  0  0  0  0  0
    8.2504    0.0168   21.4265 C   0  0  0  0  0  0  0  0  0  0  0  0
    7.2688    2.1128   26.0503 C   0  0  0  0  0  0  0  0  0  0  0  0
    7.8737   -0.1194   23.8825 C   0  0  0  0  0  0  0  0  0  0  0  0
    8.6253   -0.7606   22.6923 C   0  0  3  0  0  0  0  0  0  0  0  0
    6.5220    3.5122   27.9732 C   0  0  0  0  0  0  0  0  0  0  0  0
    8.0837    2.2158   24.7863 C   0  0  0  0  0  0  0  0  0  0  0  0
    6.3072    0.3768   17.3417 N   0  0  0  0  0  0  0  0  0  0  0  0
    7.2305   -0.6898   20.7785 N   0  0  0  0  0  0  0  0  0  0  0  0
    8.6625    1.0133   24.4989 N   0  0  0  0  0  0  0  0  0  0  0  0
    7.2340    3.3219   26.7300 N   0  0  0  0  0  0  0  0  0  0  0  0
   10.3268    0.7346   26.1064 O   0  0  0  0  0  0  0  0  0  0  0  0
    8.7994    1.0728   21.1165 O   0  0  0  0  0  0  0  0  0  0  0  0
    6.7119    1.0800   26.4130 O   0  0  0  0  0  0  0  0  0  0  0  0
   13.4290   -2.1374   21.1058 Cl  0  0  0  0  0  0  0  0  0  0  0  0
    2.5443    3.3508   20.6368 H   0  0  0  0  0  0  0  0  0  0  0  0
    3.5189    2.1137   22.5166 H   0  0  0  0  0  0  0  0  0  0  0  0
    3.3421    2.9744   18.3363 H   0  0  0  0  0  0  0  0  0  0  0  0
    5.3131    0.4893   22.1569 H   0  0  0  0  0  0  0  0  0  0  0  0
   12.5196    0.5948   24.9711 H   0  0  0  0  0  0  0  0  0  0  0  0
   13.9920   -0.5134   23.3749 H   0  0  0  0  0  0  0  0  0  0  0  0
   10.6100   -2.0174   21.2216 H   0  0  0  0  0  0  0  0  0  0  0  0
    4.9151    1.7511   16.7471 H   0  0  0  0  0  0  0  0  0  0  0  0
    7.6455   -0.9765   18.1038 H   0  0  0  0  0  0  0  0  0  0  0  0
    8.2104   -3.0448   22.8398 H   0  0  0  0  0  0  0  0  0  0  0  0
    6.2563   -2.5937   21.1055 H   0  0  0  0  0  0  0  0  0  0  0  0
    6.9041    0.2710   23.5774 H   0  0  0  0  0  0  0  0  0  0  0  0
    7.7147   -0.8363   24.6882 H   0  0  0  0  0  0  0  0  0  0  0  0
    5.4915    3.8331   27.7608 H   0  0  0  0  0  0  0  0  0  0  0  0
    6.5030    2.5657   28.5334 H   0  0  0  0  0  0  0  0  0  0  0  0
    7.0297    4.2826   28.5722 H   0  0  0  0  0  0  0  0  0  0  0  0
    7.4374    2.5107   23.9543 H   0  0  0  0  0  0  0  0  0  0  0  0
    8.8732    2.9622   24.9139 H   0  0  0  0  0  0  0  0  0  0  0  0
    7.7339    4.1127   26.3342 H   0  0  0  0  0  0  0  0  0  0  0  0
  1  2  2  0  0  0  0
  1  3  1  0  0  0  0
  2  4  1  0  0  0  0
  3 10  2  0  0  0  0
  4 11  2  0  0  0  0
  5  6  2  0  0  0  0
  5 12  1  0  0  0  0
  6 15  1  0  0  0  0
  7 13  1  0  0  0  0
  7 15  2  0  0  0  0
  8 10  1  0  0  0  0
  8 25  2  0  0  0  0
  9 14  2  0  0  0  0
  9 25  1  0  0  0  0
 10 11  1  0  0  0  0
 11 14  1  0  0  0  0
 12 13  2  0  0  0  0
 12 18  1  0  0  0  0
 13 22  1  0  0  0  0
 14 26  1  0  0  0  0
 15 32  1  0  0  0  0
 16 17  2  0  0  0  0
 16 22  1  0  0  0  0
 17 26  1  0  0  0  0
 18 27  1  0  0  0  0
 18 29  2  0  0  0  0
 19 22  1  0  0  0  0
 19 26  1  0  0  0  0
 19 30  2  0  0  0  0
 20 24  1  0  0  0  0
 20 28  1  0  0  0  0
 20 31  2  0  0  0  0
 21 22  1  0  0  0  0
 21 27  1  0  0  0  0
 23 28  1  0  0  0  0
 24 27  1  0  0  0  0
  1 33  1  0  0  0  0
  2 34  1  0  0  0  0
  3 35  1  0  0  0  0
  4 36  1  0  0  0  0
  5 37  1  0  0  0  0
  6 38  1  0  0  0  0
  7 39  1  0  0  0  0
  8 40  1  0  0  0  0
  9 41  1  0  0  0  0
 16 42  1  0  0  0  0
 17 43  1  0  0  0  0
 21 44  1  0  0  0  0
 21 45  1  0  0  0  0
 23 46  1  0  0  0  0
 23 47  1  0  0  0  0
 23 48  1  0  0  0  0
 24 49  1  0  0  0  0
 24 50  1  0  0  0  0
 28 51  1  0  0  0  0
M  END
> <scaffold>
tetrahydroisoquinoline-5spiro-isoquinoline

> <compound>
EDJ-MED-fd8ed875-3

> <compound_smiles>
CNC(=O)CN1CC2(C=CN(C2=O)c3cncc4c3cccc4)c5cc(ccc5C1=O)Cl

> <enantiomer_smiles>
CNC(=O)CN1C[C@@]2(C=CN(C2=O)c3cncc4c3cccc4)c5cc(ccc5C1=O)Cl

> <clash_score>
0

> <docking_score>
3.4028234663852886e+38

> <overlap_score>
0.9895357489585876

> <MMFF_internal_energy>
211.19125700322493

> <docked_smiles>
CNC(=O)CN1C[C@@]2(C=CN(C2=O)c3cncc4c3cccc4)c5cc(ccc5C1=O)Cl

$$$$
MAT-POS-b4d6b7fc-5_1
  -OEChem-01042202303D

 55 59  0     1  0  0  0  0  0999 V2000
    3.7877    2.4205   19.1658 C   0  0  0  0  0  0  0  0  0  0  0  0
   12.0781    0.0316   24.1532 C   0  0  0  0  0  0  0  0  0  0  0  0
    3.3444    2.6278   20.4409 C   0  0  0  0  0  0  0  0  0  0  0  0
   12.9147   -0.6032   23.2559 C   0  0  0  0  0  0  0  0  0  0  0  0
    4.8986    1.0232   21.2985 C   0  0  0  0  0  0  0  0  0  0  0  0
   11.0005   -1.4332   22.0435 C   0  0  0  0  0  0  0  0  0  0  0  0
    5.3288    1.2339   17.6062 C   0  0  0  0  0  0  0  0  0  0  0  0
    6.8449   -0.2893   18.3747 C   0  0  0  0  0  0  0  0  0  0  0  0
    4.8238    1.4906   18.9051 C   0  0  0  0  0  0  0  0  0  0  0  0
    5.3995    0.7732   19.9944 C   0  0  0  0  0  0  0  0  0  0  0  0
   10.7056   -0.0626   23.9890 C   0  0  0  0  0  0  0  0  0  0  0  0
   10.1421   -0.7766   22.9242 C   0  0  0  0  0  0  0  0  0  0  0  0
    6.4452   -0.1472   19.6975 C   0  0  0  0  0  0  0  0  0  0  0  0
    3.8974    1.9290   21.5048 C   0  0  0  0  0  0  0  0  0  0  0  0
   12.3697   -1.3298   22.2224 C   0  0  0  0  0  0  0  0  0  0  0  0
    8.2504    0.0168   21.4265 C   0  0  0  0  0  0  0  0  0  0  0  0
    6.7850    2.6041   25.0047 C   0  0  0  0  0  0  0  0  0  0  0  0
    9.9496    0.5589   24.9527 C   0  0  0  0  0  0  0  0  0  0  0  0
    8.0155   -2.1541   22.4325 C   0  0  0  0  0  0  0  0  0  0  0  0
    6.9880   -1.9367   21.3575 C   0  0  0  0  0  0  0  0  0  0  0  0
    7.8737   -0.1194   23.8825 C   0  0  0  0  0  0  0  0  0  0  0  0
    8.6253   -0.7606   22.6923 C   0  0  3  0  0  0  0  0  0  0  0  0
    4.5270    3.4782   25.5291 C   0  0  0  0  0  0  0  0  0  0  0  0
    7.8612    1.7144   25.5743 C   0  0  0  0  0  0  0  0  0  0  0  0
    6.3072    0.3768   17.3417 N   0  0  0  0  0  0  0  0  0  0  0  0
    7.2305   -0.6898   20.7785 N   0  0  0  0  0  0  0  0  0  0  0  0
    5.6894    2.6850   25.8510 N   0  0  0  0  0  0  0  0  0  0  0  0
    8.6625    1.0133   24.4989 N   0  3  3  0  0  0  0  0  0  0  0  0
    8.8307    1.0396   21.0789 O   0  0  0  0  0  0  0  0  0  0  0  0
    6.8869    3.1779   23.9236 O   0  0  0  0  0  0  0  0  0  0  0  0
    3.4330    2.1555   22.7513 F   0  0  0  0  0  0  0  0  0  0  0  0
   13.4286   -2.1403   21.1072 Cl  0  0  0  0  0  0  0  0  0  0  0  0
    3.3411    2.9735   18.3363 H   0  0  0  0  0  0  0  0  0  0  0  0
   12.5040    0.5973   24.9741 H   0  0  0  0  0  0  0  0  0  0  0  0
    2.5441    3.3506   20.6360 H   0  0  0  0  0  0  0  0  0  0  0  0
   13.9926   -0.5176   23.3780 H   0  0  0  0  0  0  0  0  0  0  0  0
    5.3117    0.4882   22.1567 H   0  0  0  0  0  0  0  0  0  0  0  0
   10.6057   -2.0168   21.2239 H   0  0  0  0  0  0  0  0  0  0  0  0
    4.9147    1.7515   16.7472 H   0  0  0  0  0  0  0  0  0  0  0  0
    7.6456   -0.9763   18.1039 H   0  0  0  0  0  0  0  0  0  0  0  0
    9.7630   -0.1207   25.8244 H   0  0  0  0  0  0  0  0  0  0  0  0
   10.4585    1.4662   25.3691 H   0  0  0  0  0  0  0  0  0  0  0  0
    7.5159   -2.5477   23.3319 H   0  0  0  0  0  0  0  0  0  0  0  0
    8.7613   -2.9061   22.1409 H   0  0  0  0  0  0  0  0  0  0  0  0
    7.0594   -2.7244   20.5709 H   0  0  0  0  0  0  0  0  0  0  0  0
    5.9531   -1.9957   21.7710 H   0  0  0  0  0  0  0  0  0  0  0  0
    6.8972    0.2930   23.5750 H   0  0  0  0  0  0  0  0  0  0  0  0
    7.6778   -0.8486   24.6901 H   0  0  0  0  0  0  0  0  0  0  0  0
    4.6459    4.4896   25.9451 H   0  0  0  0  0  0  0  0  0  0  0  0
    4.4179    3.5418   24.4364 H   0  0  0  0  0  0  0  0  0  0  0  0
    3.6312    3.0075   25.9603 H   0  0  0  0  0  0  0  0  0  0  0  0
    7.4204    0.9331   26.1997 H   0  0  0  0  0  0  0  0  0  0  0  0
    8.5777    2.3054   26.1514 H   0  0  0  0  0  0  0  0  0  0  0  0
    5.6843    2.1547   26.7176 H   0  0  0  0  0  0  0  0  0  0  0  0
    8.7953    1.7233   23.7550 H   0  0  0  0  0  0  0  0  0  0  0  0
  1  3  2  0  0  0  0
  1  9  1  0  0  0  0
  2  4  2  0  0  0  0
  2 11  1  0  0  0  0
  3 14  1  0  0  0  0
  4 15  1  0  0  0  0
  5 10  1  0  0  0  0
  5 14  2  0  0  0  0
  6 12  1  0  0  0  0
  6 15  2  0  0  0  0
  7  9  2  0  0  0  0
  7 25  1  0  0  0  0
  8 13  1  0  0  0  0
  8 25  2  0  0  0  0
  9 10  1  0  0  0  0
 10 13  2  0  0  0  0
 11 12  2  0  0  0  0
 11 18  1  0  0  0  0
 12 22  1  0  0  0  0
 13 26  1  0  0  0  0
 14 31  1  0  0  0  0
 15 32  1  0  0  0  0
 16 22  1  0  0  0  0
 16 26  1  0  0  0  0
 16 29  2  0  0  0  0
 17 24  1  0  0  0  0
 17 27  1  0  0  0  0
 17 30  2  0  0  0  0
 18 28  1  0  0  0  0
 19 20  1  0  0  0  0
 19 22  1  0  0  0  0
 20 26  1  0  0  0  0
 21 22  1  0  0  0  0
 21 28  1  0  0  0  0
 23 27  1  0  0  0  0
 24 28  1  0  0  0  0
  1 33  1  0  0  0  0
  2 34  1  0  0  0  0
  3 35  1  0  0  0  0
  4 36  1  0  0  0  0
  5 37  1  0  0  0  0
  6 38  1  0  0  0  0
  7 39  1  0  0  0  0
  8 40  1  0  0  0  0
 18 41  1  0  0  0  0
 18 42  1  0  0  0  0
 19 43  1  0  0  0  0
 19 44  1  0  0  0  0
 20 45  1  0  0  0  0
 20 46  1  0  0  0  0
 21 47  1  0  0  0  0
 21 48  1  0  0  0  0
 23 49  1  0  0  0  0
 23 50  1  0  0  0  0
 23 51  1  0  0  0  0
 24 52  1  0  0  0  0
 24 53  1  0  0  0  0
 27 54  1  0  0  0  0
 28 55  1  0  0  0  0
M  CHG  1  28   1
M  END
> <scaffold>
tetrahydroisoquinoline-5spiro-isoquinoline

> <compound>
MAT-POS-b4d6b7fc-5

> <compound_smiles>
CNC(=O)CN1Cc2ccc(cc2C3(C1)CCN(C3=O)c4cncc5c4cc(cc5)F)Cl

> <enantiomer_smiles>
CNC(=O)C[N@]1Cc2ccc(cc2[C@@]3(C1)CCN(C3=O)c4cncc5c4cc(cc5)F)Cl

> <clash_score>
0

> <docking_score>
3.4028234663852886e+38

> <overlap_score>
0.985761821269989

> <MMFF_internal_energy>
148.96566275914986

> <docked_smiles>
CNC(=O)C[N@H+]1Cc2ccc(cc2[C@@]3(C1)CCN(C3=O)c4cncc5c4cc(cc5)F)Cl

$$$$
PET-UNK-7e9559de-1_1
  -OEChem-01042202303D

 53 58  0     1  0  0  0  0  0999 V2000
    3.3444    2.6278   20.4409 C   0  0  0  0  0  0  0  0  0  0  0  0
    3.8974    1.9290   21.5048 C   0  0  0  0  0  0  0  0  0  0  0  0
    3.7877    2.4205   19.1658 C   0  0  0  0  0  0  0  0  0  0  0  0
    4.8986    1.0232   21.2985 C   0  0  0  0  0  0  0  0  0  0  0  0
   12.0781    0.0316   24.1532 C   0  0  0  0  0  0  0  0  0  0  0  0
   12.9147   -0.6032   23.2559 C   0  0  0  0  0  0  0  0  0  0  0  0
   11.0005   -1.4332   22.0435 C   0  0  0  0  0  0  0  0  0  0  0  0
    5.3288    1.2339   17.6062 C   0  0  0  0  0  0  0  0  0  0  0  0
    6.8449   -0.2893   18.3747 C   0  0  0  0  0  0  0  0  0  0  0  0
    9.5670    5.6645   24.9730 C   0  0  0  0  0  0  0  0  0  0  0  0
    4.8238    1.4906   18.9051 C   0  0  0  0  0  0  0  0  0  0  0  0
    5.3995    0.7732   19.9944 C   0  0  0  0  0  0  0  0  0  0  0  0
   10.7056   -0.0626   23.9890 C   0  0  0  0  0  0  0  0  0  0  0  0
   10.1421   -0.7766   22.9242 C   0  0  0  0  0  0  0  0  0  0  0  0
    6.4452   -0.1472   19.6975 C   0  0  0  0  0  0  0  0  0  0  0  0
   12.3697   -1.3298   22.2224 C   0  0  0  0  0  0  0  0  0  0  0  0
    8.9576    3.4902   24.2889 C   0  0  0  0  0  0  0  0  0  0  0  0
    8.2504    0.0168   21.4265 C   0  0  0  0  0  0  0  0  0  0  0  0
    9.9496    0.5589   24.9527 C   0  0  0  0  0  0  0  0  0  0  0  0
    8.0155   -2.1541   22.4325 C   0  0  0  0  0  0  0  0  0  0  0  0
    6.9880   -1.9367   21.3575 C   0  0  0  0  0  0  0  0  0  0  0  0
    7.8737   -0.1194   23.8825 C   0  0  0  0  0  0  0  0  0  0  0  0
    8.6253   -0.7606   22.6923 C   0  0  1  0  0  0  0  0  0  0  0  0
    8.7422    2.1970   23.5594 C   0  0  0  0  0  0  0  0  0  0  0  0
    6.3072    0.3768   17.3417 N   0  0  0  0  0  0  0  0  0  0  0  0
    8.8792    5.0357   25.9022 N   0  0  0  0  0  0  0  0  0  0  0  0
    8.5226    3.7600   25.5013 N   0  0  0  0  0  0  0  0  0  0  0  0
    7.2305   -0.6898   20.7785 N   0  0  0  0  0  0  0  0  0  0  0  0
    8.6625    1.0133   24.4989 N   0  3  3  0  0  0  0  0  0  0  0  0
    8.7593    1.0931   21.1331 O   0  0  0  0  0  0  0  0  0  0  0  0
    9.8334    4.7605   23.5400 S   0  0  0  0  0  0  0  0  0  0  0  0
   13.4284   -2.1419   21.1081 Cl  0  0  0  0  0  0  0  0  0  0  0  0
    2.5443    3.3508   20.6368 H   0  0  0  0  0  0  0  0  0  0  0  0
    3.5189    2.1137   22.5166 H   0  0  0  0  0  0  0  0  0  0  0  0
    3.3421    2.9744   18.3363 H   0  0  0  0  0  0  0  0  0  0  0  0
    5.3131    0.4893   22.1569 H   0  0  0  0  0  0  0  0  0  0  0  0
   12.5037    0.5946   24.9757 H   0  0  0  0  0  0  0  0  0  0  0  0
   13.9926   -0.5207   23.3802 H   0  0  0  0  0  0  0  0  0  0  0  0
   10.6056   -2.0221   21.2277 H   0  0  0  0  0  0  0  0  0  0  0  0
    4.9151    1.7511   16.7471 H   0  0  0  0  0  0  0  0  0  0  0  0
    7.6455   -0.9765   18.1038 H   0  0  0  0  0  0  0  0  0  0  0  0
    9.9357    6.6724   25.1012 H   0  0  0  0  0  0  0  0  0  0  0  0
    9.7403   -0.1133   25.8244 H   0  0  0  0  0  0  0  0  0  0  0  0
   10.4790    1.4543   25.3703 H   0  0  0  0  0  0  0  0  0  0  0  0
    7.5792   -2.6118   23.3311 H   0  0  0  0  0  0  0  0  0  0  0  0
    8.7749   -2.8616   22.0637 H   0  0  0  0  0  0  0  0  0  0  0  0
    7.0238   -2.7505   20.5946 H   0  0  0  0  0  0  0  0  0  0  0  0
    5.9570   -1.9473   21.7830 H   0  0  0  0  0  0  0  0  0  0  0  0
    6.8973    0.3003   23.5778 H   0  0  0  0  0  0  0  0  0  0  0  0
    7.6752   -0.8519   24.6839 H   0  0  0  0  0  0  0  0  0  0  0  0
    7.8170    2.2221   22.9738 H   0  0  0  0  0  0  0  0  0  0  0  0
    9.5679    1.9895   22.8701 H   0  0  0  0  0  0  0  0  0  0  0  0
    8.1138    1.3500   25.3119 H   0  0  0  0  0  0  0  0  0  0  0  0
  1  2  2  0  0  0  0
  1  3  1  0  0  0  0
  2  4  1  0  0  0  0
  3 11  2  0  0  0  0
  4 12  2  0  0  0  0
  5  6  2  0  0  0  0
  5 13  1  0  0  0  0
  6 16  1  0  0  0  0
  7 14  1  0  0  0  0
  7 16  2  0  0  0  0
  8 11  1  0  0  0  0
  8 25  2  0  0  0  0
  9 15  2  0  0  0  0
  9 25  1  0  0  0  0
 10 26  2  0  0  0  0
 10 31  1  0  0  0  0
 11 12  1  0  0  0  0
 12 15  1  0  0  0  0
 13 14  2  0  0  0  0
 13 19  1  0  0  0  0
 14 23  1  6  0  0  0
 15 28  1  0  0  0  0
 16 32  1  0  0  0  0
 17 24  1  0  0  0  0
 17 27  2  0  0  0  0
 17 31  1  0  0  0  0
 18 23  1  1  0  0  0
 18 28  1  0  0  0  0
 18 30  2  0  0  0  0
 19 29  1  0  0  0  0
 20 21  1  0  0  0  0
 20 23  1  1  0  0  0
 21 28  1  0  0  0  0
 22 23  1  6  0  0  0
 22 29  1  0  0  0  0
 24 29  1  0  0  0  0
 26 27  1  0  0  0  0
  1 33  1  0  0  0  0
  2 34  1  0  0  0  0
  3 35  1  0  0  0  0
  4 36  1  0  0  0  0
  5 37  1  0  0  0  0
  6 38  1  0  0  0  0
  7 39  1  0  0  0  0
  8 40  1  0  0  0  0
  9 41  1  0  0  0  0
 10 42  1  0  0  0  0
 19 43  1  0  0  0  0
 19 44  1  0  0  0  0
 20 45  1  0  0  0  0
 20 46  1  0  0  0  0
 21 47  1  0  0  0  0
 21 48  1  0  0  0  0
 22 49  1  0  0  0  0
 22 50  1  0  0  0  0
 24 51  1  0  0  0  0
 24 52  1  0  0  0  0
 29 53  1  0  0  0  0
M  CHG  1  29   1
M  END
> <scaffold>
tetrahydroisoquinoline-5spiro-isoquinoline

> <compound>
PET-UNK-7e9559de-1

> <compound_smiles>
c1ccc2c(c1)cncc2N3CC[C@@]4(C3=O)CN(Cc5c4cc(cc5)Cl)Cc6nncs6

> <enantiomer_smiles>
c1ccc2c(c1)cncc2N3CC[C@@]4(C3=O)C[N@@](Cc5c4cc(cc5)Cl)Cc6nncs6

> <clash_score>
0

> <docking_score>
3.4028234663852886e+38

> <overlap_score>
0.9763164520263672

> <MMFF_internal_energy>
141.02971986979836

> <docked_smiles>
c1ccc2c(c1)cncc2N3CC[C@@]4(C3=O)C[N@@H+](Cc5c4cc(cc5)Cl)Cc6nncs6

$$$$
MAT-POS-b4d6b7fc-6_1
  -OEChem-01042202303D

 55 59  0     1  0  0  0  0  0999 V2000
    3.3444    2.6278   20.4409 C   0  0  0  0  0  0  0  0  0  0  0  0
    3.7877    2.4205   19.1658 C   0  0  0  0  0  0  0  0  0  0  0  0
   12.0781    0.0316   24.1532 C   0  0  0  0  0  0  0  0  0  0  0  0
    3.8974    1.9290   21.5048 C   0  0  0  0  0  0  0  0  0  0  0  0
   12.9147   -0.6032   23.2559 C   0  0  0  0  0  0  0  0  0  0  0  0
   11.0005   -1.4332   22.0435 C   0  0  0  0  0  0  0  0  0  0  0  0
    5.3288    1.2339   17.6062 C   0  0  0  0  0  0  0  0  0  0  0  0
    6.8449   -0.2893   18.3747 C   0  0  0  0  0  0  0  0  0  0  0  0
    4.8238    1.4906   18.9051 C   0  0  0  0  0  0  0  0  0  0  0  0
    5.3995    0.7732   19.9944 C   0  0  0  0  0  0  0  0  0  0  0  0
   10.7056   -0.0626   23.9890 C   0  0  0  0  0  0  0  0  0  0  0  0
   10.1421   -0.7766   22.9242 C   0  0  0  0  0  0  0  0  0  0  0  0
    6.4452   -0.1472   19.6975 C   0  0  0  0  0  0  0  0  0  0  0  0
   12.3697   -1.3298   22.2224 C   0  0  0  0  0  0  0  0  0  0  0  0
    4.8986    1.0232   21.2985 C   0  0  0  0  0  0  0  0  0  0  0  0
    8.2504    0.0168   21.4265 C   0  0  0  0  0  0  0  0  0  0  0  0
    8.9551    3.4804   24.3212 C   0  0  0  0  0  0  0  0  0  0  0  0
    9.9496    0.5589   24.9527 C   0  0  0  0  0  0  0  0  0  0  0  0
    8.0155   -2.1541   22.4325 C   0  0  0  0  0  0  0  0  0  0  0  0
    6.9880   -1.9367   21.3575 C   0  0  0  0  0  0  0  0  0  0  0  0
    7.8737   -0.1194   23.8825 C   0  0  0  0  0  0  0  0  0  0  0  0
    8.6253   -0.7606   22.6923 C   0  0  3  0  0  0  0  0  0  0  0  0
   10.0507    5.6924   24.1106 C   0  0  0  0  0  0  0  0  0  0  0  0
    8.7443    2.1971   23.5578 C   0  0  0  0  0  0  0  0  0  0  0  0
    6.3072    0.3768   17.3417 N   0  0  0  0  0  0  0  0  0  0  0  0
    7.2305   -0.6898   20.7785 N   0  0  0  0  0  0  0  0  0  0  0  0
    9.7126    4.3872   23.5950 N   0  0  0  0  0  0  0  0  0  0  0  0
    8.6625    1.0133   24.4989 N   0  3  3  0  0  0  0  0  0  0  0  0
    8.8291    1.0404   21.0787 O   0  0  0  0  0  0  0  0  0  0  0  0
    8.5023    3.6782   25.4455 O   0  0  0  0  0  0  0  0  0  0  0  0
   13.4297   -2.1460   21.1125 Cl  0  0  0  0  0  0  0  0  0  0  0  0
    5.4637    0.2451   22.7511 Cl  0  0  0  0  0  0  0  0  0  0  0  0
    2.5436    3.3504   20.6371 H   0  0  0  0  0  0  0  0  0  0  0  0
    3.3414    2.9737   18.3360 H   0  0  0  0  0  0  0  0  0  0  0  0
   12.5046    0.5858   24.9813 H   0  0  0  0  0  0  0  0  0  0  0  0
    3.5007    2.1328   22.5078 H   0  0  0  0  0  0  0  0  0  0  0  0
   13.9929   -0.5292   23.3866 H   0  0  0  0  0  0  0  0  0  0  0  0
   10.6137   -2.0322   21.2341 H   0  0  0  0  0  0  0  0  0  0  0  0
    4.9145    1.7510   16.7474 H   0  0  0  0  0  0  0  0  0  0  0  0
    7.6459   -0.9748   18.1001 H   0  0  0  0  0  0  0  0  0  0  0  0
    9.7380   -0.1173   25.8240 H   0  0  0  0  0  0  0  0  0  0  0  0
   10.4796    1.4523   25.3816 H   0  0  0  0  0  0  0  0  0  0  0  0
    7.5143   -2.5729   23.3172 H   0  0  0  0  0  0  0  0  0  0  0  0
    8.7710   -2.8989   22.1374 H   0  0  0  0  0  0  0  0  0  0  0  0
    7.0583   -2.7255   20.5709 H   0  0  0  0  0  0  0  0  0  0  0  0
    5.9522   -1.9959   21.7710 H   0  0  0  0  0  0  0  0  0  0  0  0
    6.9019    0.3068   23.5766 H   0  0  0  0  0  0  0  0  0  0  0  0
    7.6846   -0.8453   24.6915 H   0  0  0  0  0  0  0  0  0  0  0  0
    9.2850    6.4191   23.8013 H   0  0  0  0  0  0  0  0  0  0  0  0
   10.0955    5.6523   25.2090 H   0  0  0  0  0  0  0  0  0  0  0  0
   11.0297    6.0006   23.7147 H   0  0  0  0  0  0  0  0  0  0  0  0
    9.5905    2.0041   22.8926 H   0  0  0  0  0  0  0  0  0  0  0  0
    7.8131    2.2429   22.9863 H   0  0  0  0  0  0  0  0  0  0  0  0
   10.0655    4.1262   22.6787 H   0  0  0  0  0  0  0  0  0  0  0  0
    8.1086    1.3497   25.3113 H   0  0  0  0  0  0  0  0  0  0  0  0
  1  2  2  0  0  0  0
  1  4  1  0  0  0  0
  2  9  1  0  0  0  0
  3  5  2  0  0  0  0
  3 11  1  0  0  0  0
  4 15  2  0  0  0  0
  5 14  1  0  0  0  0
  6 12  1  0  0  0  0
  6 14  2  0  0  0  0
  7  9  2  0  0  0  0
  7 25  1  0  0  0  0
  8 13  1  0  0  0  0
  8 25  2  0  0  0  0
  9 10  1  0  0  0  0
 10 13  2  0  0  0  0
 10 15  1  0  0  0  0
 11 12  2  0  0  0  0
 11 18  1  0  0  0  0
 12 22  1  0  0  0  0
 13 26  1  0  0  0  0
 14 31  1  0  0  0  0
 15 32  1  0  0  0  0
 16 22  1  0  0  0  0
 16 26  1  0  0  0  0
 16 29  2  0  0  0  0
 17 24  1  0  0  0  0
 17 27  1  0  0  0  0
 17 30  2  0  0  0  0
 18 28  1  0  0  0  0
 19 20  1  0  0  0  0
 19 22  1  0  0  0  0
 20 26  1  0  0  0  0
 21 22  1  0  0  0  0
 21 28  1  0  0  0  0
 23 27  1  0  0  0  0
 24 28  1  0  0  0  0
  1 33  1  0  0  0  0
  2 34  1  0  0  0  0
  3 35  1  0  0  0  0
  4 36  1  0  0  0  0
  5 37  1  0  0  0  0
  6 38  1  0  0  0  0
  7 39  1  0  0  0  0
  8 40  1  0  0  0  0
 18 41  1  0  0  0  0
 18 42  1  0  0  0  0
 19 43  1  0  0  0  0
 19 44  1  0  0  0  0
 20 45  1  0  0  0  0
 20 46  1  0  0  0  0
 21 47  1  0  0  0  0
 21 48  1  0  0  0  0
 23 49  1  0  0  0  0
 23 50  1  0  0  0  0
 23 51  1  0  0  0  0
 24 52  1  0  0  0  0
 24 53  1  0  0  0  0
 27 54  1  0  0  0  0
 28 55  1  0  0  0  0
M  CHG  1  28   1
M  END
> <scaffold>
tetrahydroisoquinoline-5spiro-isoquinoline

> <compound>
MAT-POS-b4d6b7fc-6

> <compound_smiles>
CNC(=O)CN1Cc2ccc(cc2C3(C1)CCN(C3=O)c4cncc5c4c(ccc5)Cl)Cl

> <enantiomer_smiles>
CNC(=O)C[N@]1Cc2ccc(cc2[C@@]3(C1)CCN(C3=O)c4cncc5c4c(ccc5)Cl)Cl

> <clash_score>
0

> <docking_score>
3.4028234663852886e+38

> <overlap_score>
0.9859179258346558

> <MMFF_internal_energy>
226.174825640548

> <docked_smiles>
CNC(=O)C[N@@H+]1Cc2ccc(cc2[C@@]3(C1)CCN(C3=O)c4cncc5c4c(ccc5)Cl)Cl

$$$$
LUO-POS-868e8996-12_1
  -OEChem-01042202303D

 55 59  0     1  0  0  0  0  0999 V2000
    3.3444    2.6278   20.4409 C   0  0  0  0  0  0  0  0  0  0  0  0
    3.8974    1.9290   21.5048 C   0  0  0  0  0  0  0  0  0  0  0  0
    3.7877    2.4205   19.1658 C   0  0  0  0  0  0  0  0  0  0  0  0
    4.8986    1.0232   21.2985 C   0  0  0  0  0  0  0  0  0  0  0  0
   12.0781    0.0316   24.1532 C   0  0  0  0  0  0  0  0  0  0  0  0
   12.9147   -0.6032   23.2559 C   0  0  0  0  0  0  0  0  0  0  0  0
   11.0005   -1.4332   22.0435 C   0  0  0  0  0  0  0  0  0  0  0  0
    5.3288    1.2339   17.6062 C   0  0  0  0  0  0  0  0  0  0  0  0
    6.8449   -0.2893   18.3747 C   0  0  0  0  0  0  0  0  0  0  0  0
    4.8238    1.4906   18.9051 C   0  0  0  0  0  0  0  0  0  0  0  0
    5.3995    0.7732   19.9944 C   0  0  0  0  0  0  0  0  0  0  0  0
   10.7056   -0.0626   23.9890 C   0  0  0  0  0  0  0  0  0  0  0  0
   10.1421   -0.7766   22.9242 C   0  0  0  0  0  0  0  0  0  0  0  0
    6.4452   -0.1472   19.6975 C   0  0  0  0  0  0  0  0  0  0  0  0
   12.3697   -1.3298   22.2224 C   0  0  0  0  0  0  0  0  0  0  0  0
    8.2504    0.0168   21.4265 C   0  0  0  0  0  0  0  0  0  0  0  0
    6.7850    2.6041   25.0047 C   0  0  0  0  0  0  0  0  0  0  0  0
    9.9496    0.5589   24.9527 C   0  0  0  0  0  0  0  0  0  0  0  0
    8.0155   -2.1541   22.4325 C   0  0  0  0  0  0  0  0  0  0  0  0
    6.9880   -1.9367   21.3575 C   0  0  0  0  0  0  0  0  0  0  0  0
    7.8737   -0.1194   23.8825 C   0  0  0  0  0  0  0  0  0  0  0  0
    8.6253   -0.7606   22.6923 C   0  0  1  0  0  0  0  0  0  0  0  0
    4.5270    3.4782   25.5291 C   0  0  0  0  0  0  0  0  0  0  0  0
    7.8612    1.7144   25.5743 C   0  0  0  0  0  0  0  0  0  0  0  0
    6.3072    0.3768   17.3417 N   0  0  0  0  0  0  0  0  0  0  0  0
    7.2305   -0.6898   20.7785 N   0  0  0  0  0  0  0  0  0  0  0  0
    5.6894    2.6850   25.8510 N   0  0  0  0  0  0  0  0  0  0  0  0
    8.6625    1.0133   24.4989 N   0  3  3  0  0  0  0  0  0  0  0  0
    8.8307    1.0396   21.0789 O   0  0  0  0  0  0  0  0  0  0  0  0
    6.8869    3.1779   23.9236 O   0  0  0  0  0  0  0  0  0  0  0  0
   13.4286   -2.1403   21.1072 Cl  0  0  0  0  0  0  0  0  0  0  0  0
    2.5443    3.3508   20.6368 H   0  0  0  0  0  0  0  0  0  0  0  0
    3.5189    2.1137   22.5166 H   0  0  0  0  0  0  0  0  0  0  0  0
    3.3421    2.9744   18.3363 H   0  0  0  0  0  0  0  0  0  0  0  0
    5.3131    0.4893   22.1569 H   0  0  0  0  0  0  0  0  0  0  0  0
   12.5040    0.5973   24.9741 H   0  0  0  0  0  0  0  0  0  0  0  0
   13.9926   -0.5176   23.3780 H   0  0  0  0  0  0  0  0  0  0  0  0
   10.6057   -2.0168   21.2239 H   0  0  0  0  0  0  0  0  0  0  0  0
    4.9151    1.7511   16.7471 H   0  0  0  0  0  0  0  0  0  0  0  0
    7.6455   -0.9765   18.1038 H   0  0  0  0  0  0  0  0  0  0  0  0
    9.7630   -0.1207   25.8244 H   0  0  0  0  0  0  0  0  0  0  0  0
   10.4585    1.4662   25.3691 H   0  0  0  0  0  0  0  0  0  0  0  0
    7.5159   -2.5477   23.3319 H   0  0  0  0  0  0  0  0  0  0  0  0
    8.7613   -2.9061   22.1409 H   0  0  0  0  0  0  0  0  0  0  0  0
    7.0594   -2.7244   20.5709 H   0  0  0  0  0  0  0  0  0  0  0  0
    5.9531   -1.9957   21.7710 H   0  0  0  0  0  0  0  0  0  0  0  0
    6.8972    0.2930   23.5750 H   0  0  0  0  0  0  0  0  0  0  0  0
    7.6778   -0.8486   24.6901 H   0  0  0  0  0  0  0  0  0  0  0  0
    4.6459    4.4896   25.9451 H   0  0  0  0  0  0  0  0  0  0  0  0
    4.4179    3.5418   24.4364 H   0  0  0  0  0  0  0  0  0  0  0  0
    3.6312    3.0075   25.9603 H   0  0  0  0  0  0  0  0  0  0  0  0
    7.4204    0.9331   26.1997 H   0  0  0  0  0  0  0  0  0  0  0  0
    8.5777    2.3054   26.1514 H   0  0  0  0  0  0  0  0  0  0  0  0
    5.6843    2.1547   26.7176 H   0  0  0  0  0  0  0  0  0  0  0  0
    8.7953    1.7233   23.7550 H   0  0  0  0  0  0  0  0  0  0  0  0
  1  2  2  0  0  0  0
  1  3  1  0  0  0  0
  2  4  1  0  0  0  0
  3 10  2  0  0  0  0
  4 11  2  0  0  0  0
  5  6  2  0  0  0  0
  5 12  1  0  0  0  0
  6 15  1  0  0  0  0
  7 13  1  0  0  0  0
  7 15  2  0  0  0  0
  8 10  1  0  0  0  0
  8 25  2  0  0  0  0
  9 14  2  0  0  0  0
  9 25  1  0  0  0  0
 10 11  1  0  0  0  0
 11 14  1  0  0  0  0
 12 13  2  0  0  0  0
 12 18  1  0  0  0  0
 13 22  1  1  0  0  0
 14 26  1  0  0  0  0
 15 31  1  0  0  0  0
 16 22  1  6  0  0  0
 16 26  1  0  0  0  0
 16 29  2  0  0  0  0
 17 24  1  0  0  0  0
 17 27  1  0  0  0  0
 17 30  2  0  0  0  0
 18 28  1  0  0  0  0
 19 20  1  0  0  0  0
 19 22  1  6  0  0  0
 20 26  1  0  0  0  0
 21 22  1  1  0  0  0
 21 28  1  0  0  0  0
 23 27  1  0  0  0  0
 24 28  1  0  0  0  0
  1 32  1  0  0  0  0
  2 33  1  0  0  0  0
  3 34  1  0  0  0  0
  4 35  1  0  0  0  0
  5 36  1  0  0  0  0
  6 37  1  0  0  0  0
  7 38  1  0  0  0  0
  8 39  1  0  0  0  0
  9 40  1  0  0  0  0
 18 41  1  0  0  0  0
 18 42  1  0  0  0  0
 19 43  1  0  0  0  0
 19 44  1  0  0  0  0
 20 45  1  0  0  0  0
 20 46  1  0  0  0  0
 21 47  1  0  0  0  0
 21 48  1  0  0  0  0
 23 49  1  0  0  0  0
 23 50  1  0  0  0  0
 23 51  1  0  0  0  0
 24 52  1  0  0  0  0
 24 53  1  0  0  0  0
 27 54  1  0  0  0  0
 28 55  1  0  0  0  0
M  CHG  1  28   1
M  END
> <scaffold>
tetrahydroisoquinoline-5spiro-isoquinoline

> <compound>
LUO-POS-868e8996-12

> <compound_smiles>
CNC(=O)CN1Cc2ccc(cc2[C@@]3(C1)CCN(C3=O)c4cncc5c4cccc5)Cl

> <enantiomer_smiles>
CNC(=O)C[N@]1Cc2ccc(cc2[C@@]3(C1)CCN(C3=O)c4cncc5c4cccc5)Cl

> <clash_score>
0

> <docking_score>
3.4028234663852886e+38

> <overlap_score>
0.9768840670585632

> <MMFF_internal_energy>
157.56368759159636

> <docked_smiles>
CNC(=O)C[N@H+]1Cc2ccc(cc2[C@@]3(C1)CCN(C3=O)c4cncc5c4cccc5)Cl

$$$$
MIK-ENA-37e0b697-1_1
  -OEChem-01042202303D

 53 57  0     1  0  0  0  0  0999 V2000
    3.3444    2.6278   20.4409 C   0  0  0  0  0  0  0  0  0  0  0  0
    3.8974    1.9290   21.5048 C   0  0  0  0  0  0  0  0  0  0  0  0
    3.7877    2.4205   19.1658 C   0  0  0  0  0  0  0  0  0  0  0  0
    4.8986    1.0232   21.2985 C   0  0  0  0  0  0  0  0  0  0  0  0
   12.0781    0.0316   24.1532 C   0  0  0  0  0  0  0  0  0  0  0  0
   12.9147   -0.6032   23.2559 C   0  0  0  0  0  0  0  0  0  0  0  0
   11.0005   -1.4332   22.0435 C   0  0  0  0  0  0  0  0  0  0  0  0
    5.3288    1.2339   17.6062 C   0  0  0  0  0  0  0  0  0  0  0  0
    6.8449   -0.2893   18.3747 C   0  0  0  0  0  0  0  0  0  0  0  0
    4.8238    1.4906   18.9051 C   0  0  0  0  0  0  0  0  0  0  0  0
    5.3995    0.7732   19.9944 C   0  0  0  0  0  0  0  0  0  0  0  0
   10.7056   -0.0626   23.9890 C   0  0  0  0  0  0  0  0  0  0  0  0
   10.1421   -0.7766   22.9242 C   0  0  0  0  0  0  0  0  0  0  0  0
    6.4452   -0.1472   19.6975 C   0  0  0  0  0  0  0  0  0  0  0  0
   12.3697   -1.3298   22.2224 C   0  0  0  0  0  0  0  0  0  0  0  0
    9.9496    0.5589   24.9527 C   0  0  0  0  0  0  0  0  0  0  0  0
    8.2504    0.0168   21.4265 C   0  0  0  0  0  0  0  0  0  0  0  0
    7.2900    2.1445   26.0369 C   0  0  0  0  0  0  0  0  0  0  0  0
    8.0155   -2.1541   22.4325 C   0  0  0  0  0  0  0  0  0  0  0  0
    6.9880   -1.9367   21.3575 C   0  0  0  0  0  0  0  0  0  0  0  0
    7.8737   -0.1194   23.8825 C   0  0  0  0  0  0  0  0  0  0  0  0
    8.6253   -0.7606   22.6923 C   0  0  1  0  0  0  0  0  0  0  0  0
    6.5711    3.5767   27.9463 C   0  0  0  0  0  0  0  0  0  0  0  0
    8.0937    2.2235   24.7641 C   0  0  0  0  0  0  0  0  0  0  0  0
    6.3072    0.3768   17.3417 N   0  0  0  0  0  0  0  0  0  0  0  0
    7.2305   -0.6898   20.7785 N   0  0  0  0  0  0  0  0  0  0  0  0
    8.6625    1.0133   24.4989 N   0  0  0  0  0  0  0  0  0  0  0  0
    7.2701    3.3635   26.6994 N   0  0  0  0  0  0  0  0  0  0  0  0
   10.3233    0.7301   26.1084 O   0  0  0  0  0  0  0  0  0  0  0  0
    8.8205    1.0412   21.0776 O   0  0  0  0  0  0  0  0  0  0  0  0
    6.7292    1.1210   26.4195 O   0  0  0  0  0  0  0  0  0  0  0  0
   13.4288   -2.1465   21.1124 Cl  0  0  0  0  0  0  0  0  0  0  0  0
    2.5443    3.3508   20.6368 H   0  0  0  0  0  0  0  0  0  0  0  0
    3.5189    2.1137   22.5166 H   0  0  0  0  0  0  0  0  0  0  0  0
    3.3421    2.9744   18.3363 H   0  0  0  0  0  0  0  0  0  0  0  0
    5.3131    0.4893   22.1569 H   0  0  0  0  0  0  0  0  0  0  0  0
   12.5188    0.5961   24.9710 H   0  0  0  0  0  0  0  0  0  0  0  0
   13.9920   -0.5226   23.3817 H   0  0  0  0  0  0  0  0  0  0  0  0
   10.6143   -2.0253   21.2266 H   0  0  0  0  0  0  0  0  0  0  0  0
    4.9151    1.7511   16.7471 H   0  0  0  0  0  0  0  0  0  0  0  0
    7.6455   -0.9765   18.1038 H   0  0  0  0  0  0  0  0  0  0  0  0
    7.5128   -2.5277   23.3386 H   0  0  0  0  0  0  0  0  0  0  0  0
    8.7593   -2.9102   22.1430 H   0  0  0  0  0  0  0  0  0  0  0  0
    7.0602   -2.7255   20.5716 H   0  0  0  0  0  0  0  0  0  0  0  0
    5.9526   -1.9964   21.7706 H   0  0  0  0  0  0  0  0  0  0  0  0
    6.9217    0.3182   23.5732 H   0  0  0  0  0  0  0  0  0  0  0  0
    7.6678   -0.8543   24.6617 H   0  0  0  0  0  0  0  0  0  0  0  0
    5.5409    3.9020   27.7387 H   0  0  0  0  0  0  0  0  0  0  0  0
    6.5506    2.6385   28.5201 H   0  0  0  0  0  0  0  0  0  0  0  0
    7.0898    4.3520   28.5293 H   0  0  0  0  0  0  0  0  0  0  0  0
    7.4419    2.5111   23.9339 H   0  0  0  0  0  0  0  0  0  0  0  0
    8.8897    2.9659   24.8736 H   0  0  0  0  0  0  0  0  0  0  0  0
    7.7718    4.1449   26.2876 H   0  0  0  0  0  0  0  0  0  0  0  0
  1  2  2  0  0  0  0
  1  3  1  0  0  0  0
  2  4  1  0  0  0  0
  3 10  2  0  0  0  0
  4 11  2  0  0  0  0
  5  6  2  0  0  0  0
  5 12  1  0  0  0  0
  6 15  1  0  0  0  0
  7 13  1  0  0  0  0
  7 15  2  0  0  0  0
  8 10  1  0  0  0  0
  8 25  2  0  0  0  0
  9 14  2  0  0  0  0
  9 25  1  0  0  0  0
 10 11  1  0  0  0  0
 11 14  1  0  0  0  0
 12 13  2  0  0  0  0
 12 16  1  0  0  0  0
 13 22  1  1  0  0  0
 14 26  1  0  0  0  0
 15 32  1  0  0  0  0
 16 27  1  0  0  0  0
 16 29  2  0  0  0  0
 17 22  1  1  0  0  0
 17 26  1  0  0  0  0
 17 30  2  0  0  0  0
 18 24  1  0  0  0  0
 18 28  1  0  0  0  0
 18 31  2  0  0  0  0
 19 20  1  0  0  0  0
 19 22  1  6  0  0  0
 20 26  1  0  0  0  0
 21 22  1  6  0  0  0
 21 27  1  0  0  0  0
 23 28  1  0  0  0  0
 24 27  1  0  0  0  0
  1 33  1  0  0  0  0
  2 34  1  0  0  0  0
  3 35  1  0  0  0  0
  4 36  1  0  0  0  0
  5 37  1  0  0  0  0
  6 38  1  0  0  0  0
  7 39  1  0  0  0  0
  8 40  1  0  0  0  0
  9 41  1  0  0  0  0
 19 42  1  0  0  0  0
 19 43  1  0  0  0  0
 20 44  1  0  0  0  0
 20 45  1  0  0  0  0
 21 46  1  0  0  0  0
 21 47  1  0  0  0  0
 23 48  1  0  0  0  0
 23 49  1  0  0  0  0
 23 50  1  0  0  0  0
 24 51  1  0  0  0  0
 24 52  1  0  0  0  0
 28 53  1  0  0  0  0
M  END
> <scaffold>
tetrahydroisoquinoline-5spiro-isoquinoline

> <compound>
MIK-ENA-37e0b697-1

> <compound_smiles>
CNC(=O)CN1C[C@]2(CCN(C2=O)c3cncc4c3cccc4)c5cc(ccc5C1=O)Cl

> <enantiomer_smiles>
CNC(=O)CN1C[C@]2(CCN(C2=O)c3cncc4c3cccc4)c5cc(ccc5C1=O)Cl

> <clash_score>
0

> <docking_score>
3.4028234663852886e+38

> <overlap_score>
0.9896502494812012

> <MMFF_internal_energy>
158.84807719662504

> <docked_smiles>
CNC(=O)CN1C[C@]2(CCN(C2=O)c3cncc4c3cccc4)c5cc(ccc5C1=O)Cl

$$$$
JOH-MSK-1f2dff76-2_1
  -OEChem-01042202303D

 54 58  0     1  0  0  0  0  0999 V2000
    3.3444    2.6278   20.4409 C   0  0  0  0  0  0  0  0  0  0  0  0
    3.8974    1.9290   21.5048 C   0  0  0  0  0  0  0  0  0  0  0  0
    3.7877    2.4205   19.1658 C   0  0  0  0  0  0  0  0  0  0  0  0
    4.8986    1.0232   21.2985 C   0  0  0  0  0  0  0  0  0  0  0  0
   12.0781    0.0316   24.1532 C   0  0  0  0  0  0  0  0  0  0  0  0
   12.9147   -0.6032   23.2559 C   0  0  0  0  0  0  0  0  0  0  0  0
   11.0005   -1.4332   22.0435 C   0  0  0  0  0  0  0  0  0  0  0  0
    5.3288    1.2339   17.6062 C   0  0  0  0  0  0  0  0  0  0  0  0
    6.8449   -0.2893   18.3747 C   0  0  0  0  0  0  0  0  0  0  0  0
    4.8238    1.4906   18.9051 C   0  0  0  0  0  0  0  0  0  0  0  0
    5.3995    0.7732   19.9944 C   0  0  0  0  0  0  0  0  0  0  0  0
   10.7056   -0.0626   23.9890 C   0  0  0  0  0  0  0  0  0  0  0  0
   10.1421   -0.7766   22.9242 C   0  0  0  0  0  0  0  0  0  0  0  0
    6.4452   -0.1472   19.6975 C   0  0  0  0  0  0  0  0  0  0  0  0
   12.3697   -1.3298   22.2224 C   0  0  0  0  0  0  0  0  0  0  0  0
    6.9880   -1.9367   21.3575 C   0  0  0  0  0  0  0  0  0  0  0  0
    8.2504    0.0168   21.4265 C   0  0  0  0  0  0  0  0  0  0  0  0
    8.9582    3.4839   24.3154 C   0  0  0  0  0  0  0  0  0  0  0  0
    9.9496    0.5589   24.9527 C   0  0  0  0  0  0  0  0  0  0  0  0
    8.0155   -2.1541   22.4325 C   0  0  0  0  0  0  0  0  0  0  0  0
    7.8737   -0.1194   23.8825 C   0  0  0  0  0  0  0  0  0  0  0  0
    8.6253   -0.7606   22.6923 C   0  0  2  0  0  0  0  0  0  0  0  0
   10.0578    5.6924   24.0892 C   0  0  0  0  0  0  0  0  0  0  0  0
    8.7417    2.1971   23.5595 C   0  0  0  0  0  0  0  0  0  0  0  0
    6.3072    0.3768   17.3417 N   0  0  0  0  0  0  0  0  0  0  0  0
    7.2305   -0.6898   20.7785 N   0  0  0  0  0  0  0  0  0  0  0  0
    9.7149    4.3852   23.5817 N   0  0  0  0  0  0  0  0  0  0  0  0
    8.6625    1.0133   24.4989 N   0  3  3  0  0  0  0  0  0  0  0  0
    6.1215   -2.7591   21.1049 O   0  0  0  0  0  0  0  0  0  0  0  0
    8.7917    1.0597   21.1004 O   0  0  0  0  0  0  0  0  0  0  0  0
    8.5100    3.6885   25.4404 O   0  0  0  0  0  0  0  0  0  0  0  0
   13.4287   -2.1418   21.1083 Cl  0  0  0  0  0  0  0  0  0  0  0  0
    2.5443    3.3508   20.6368 H   0  0  0  0  0  0  0  0  0  0  0  0
    3.5189    2.1137   22.5166 H   0  0  0  0  0  0  0  0  0  0  0  0
    3.3421    2.9744   18.3363 H   0  0  0  0  0  0  0  0  0  0  0  0
    5.3131    0.4893   22.1569 H   0  0  0  0  0  0  0  0  0  0  0  0
   12.5035    0.5944   24.9760 H   0  0  0  0  0  0  0  0  0  0  0  0
   13.9927   -0.5198   23.3796 H   0  0  0  0  0  0  0  0  0  0  0  0
   10.6048   -2.0220   21.2279 H   0  0  0  0  0  0  0  0  0  0  0  0
    4.9151    1.7511   16.7471 H   0  0  0  0  0  0  0  0  0  0  0  0
    7.6455   -0.9765   18.1038 H   0  0  0  0  0  0  0  0  0  0  0  0
    9.7399   -0.1142   25.8240 H   0  0  0  0  0  0  0  0  0  0  0  0
   10.4789    1.4541   25.3723 H   0  0  0  0  0  0  0  0  0  0  0  0
    7.5364   -2.5825   23.3194 H   0  0  0  0  0  0  0  0  0  0  0  0
    8.7444   -2.8804   22.0516 H   0  0  0  0  0  0  0  0  0  0  0  0
    6.8963    0.2998   23.5808 H   0  0  0  0  0  0  0  0  0  0  0  0
    7.6793   -0.8561   24.6819 H   0  0  0  0  0  0  0  0  0  0  0  0
    9.2925    6.4191   23.7790 H   0  0  0  0  0  0  0  0  0  0  0  0
   10.1066    5.6579   25.1876 H   0  0  0  0  0  0  0  0  0  0  0  0
   11.0359    5.9963   23.6880 H   0  0  0  0  0  0  0  0  0  0  0  0
    9.5850    1.9988   22.8921 H   0  0  0  0  0  0  0  0  0  0  0  0
    7.8085    2.2419   22.9912 H   0  0  0  0  0  0  0  0  0  0  0  0
   10.0638    4.1187   22.6654 H   0  0  0  0  0  0  0  0  0  0  0  0
    8.1139    1.3496   25.3124 H   0  0  0  0  0  0  0  0  0  0  0  0
  1  2  2  0  0  0  0
  1  3  1  0  0  0  0
  2  4  1  0  0  0  0
  3 10  2  0  0  0  0
  4 11  2  0  0  0  0
  5  6  2  0  0  0  0
  5 12  1  0  0  0  0
  6 15  1  0  0  0  0
  7 13  1  0  0  0  0
  7 15  2  0  0  0  0
  8 10  1  0  0  0  0
  8 25  2  0  0  0  0
  9 14  2  0  0  0  0
  9 25  1  0  0  0  0
 10 11  1  0  0  0  0
 11 14  1  0  0  0  0
 12 13  2  0  0  0  0
 12 19  1  0  0  0  0
 13 22  1  6  0  0  0
 14 26  1  0  0  0  0
 15 32  1  0  0  0  0
 16 20  1  0  0  0  0
 16 26  1  0  0  0  0
 16 29  2  0  0  0  0
 17 22  1  1  0  0  0
 17 26  1  0  0  0  0
 17 30  2  0  0  0  0
 18 24  1  0  0  0  0
 18 27  1  0  0  0  0
 18 31  2  0  0  0  0
 19 28  1  0  0  0  0
 20 22  1  1  0  0  0
 21 22  1  6  0  0  0
 21 28  1  0  0  0  0
 23 27  1  0  0  0  0
 24 28  1  0  0  0  0
  1 33  1  0  0  0  0
  2 34  1  0  0  0  0
  3 35  1  0  0  0  0
  4 36  1  0  0  0  0
  5 37  1  0  0  0  0
  6 38  1  0  0  0  0
  7 39  1  0  0  0  0
  8 40  1  0  0  0  0
  9 41  1  0  0  0  0
 19 42  1  0  0  0  0
 19 43  1  0  0  0  0
 20 44  1  0  0  0  0
 20 45  1  0  0  0  0
 21 46  1  0  0  0  0
 21 47  1  0  0  0  0
 23 48  1  0  0  0  0
 23 49  1  0  0  0  0
 23 50  1  0  0  0  0
 24 51  1  0  0  0  0
 24 52  1  0  0  0  0
 27 53  1  0  0  0  0
 28 54  1  0  0  0  0
M  CHG  1  28   1
M  END
> <scaffold>
tetrahydroisoquinoline-5spiro-isoquinoline

> <compound>
JOH-MSK-1f2dff76-2

> <compound_smiles>
CNC(=O)CN1Cc2ccc(cc2[C@]3(C1)CC(=O)N(C3=O)c4cncc5c4cccc5)Cl

> <enantiomer_smiles>
CNC(=O)C[N@@]1Cc2ccc(cc2[C@]3(C1)CC(=O)N(C3=O)c4cncc5c4cccc5)Cl

> <clash_score>
0

> <docking_score>
3.4028234663852886e+38

> <overlap_score>
1.0

> <MMFF_internal_energy>
125.62849561615637

> <docked_smiles>
CNC(=O)C[N@@H+]1Cc2ccc(cc2[C@]3(C1)CC(=O)N(C3=O)c4cncc5c4cccc5)Cl

$$$$
VLA-MRT-a639d434-2_1
  -OEChem-01042202303D

 50 54  0     1  0  0  0  0  0999 V2000
    3.3444    2.6278   20.4409 C   0  0  0  0  0  0  0  0  0  0  0  0
    3.8974    1.9290   21.5048 C   0  0  0  0  0  0  0  0  0  0  0  0
    3.7877    2.4205   19.1658 C   0  0  0  0  0  0  0  0  0  0  0  0
    4.8986    1.0232   21.2985 C   0  0  0  0  0  0  0  0  0  0  0  0
   12.0781    0.0316   24.1532 C   0  0  0  0  0  0  0  0  0  0  0  0
   12.9147   -0.6032   23.2559 C   0  0  0  0  0  0  0  0  0  0  0  0
   11.0005   -1.4332   22.0435 C   0  0  0  0  0  0  0  0  0  0  0  0
    5.3288    1.2339   17.6062 C   0  0  0  0  0  0  0  0  0  0  0  0
    6.8449   -0.2893   18.3747 C   0  0  0  0  0  0  0  0  0  0  0  0
    4.8238    1.4906   18.9051 C   0  0  0  0  0  0  0  0  0  0  0  0
    5.3995    0.7732   19.9944 C   0  0  0  0  0  0  0  0  0  0  0  0
   10.7056   -0.0626   23.9890 C   0  0  0  0  0  0  0  0  0  0  0  0
   10.1421   -0.7766   22.9242 C   0  0  0  0  0  0  0  0  0  0  0  0
    6.4452   -0.1472   19.6975 C   0  0  0  0  0  0  0  0  0  0  0  0
   12.3697   -1.3298   22.2224 C   0  0  0  0  0  0  0  0  0  0  0  0
    8.2504    0.0168   21.4265 C   0  0  0  0  0  0  0  0  0  0  0  0
    6.9880   -1.9367   21.3575 C   0  0  0  0  0  0  0  0  0  0  0  0
    8.9399    3.4828   24.3263 C   0  0  0  0  0  0  0  0  0  0  0  0
    9.9496    0.5589   24.9527 C   0  0  0  0  0  0  0  0  0  0  0  0
    7.8737   -0.1194   23.8825 C   0  0  0  0  0  0  0  0  0  0  0  0
    8.6253   -0.7606   22.6923 C   0  0  2  0  0  0  0  0  0  0  0  0
    8.7378    2.1998   23.5638 C   0  0  0  0  0  0  0  0  0  0  0  0
    6.3072    0.3768   17.3417 N   0  0  0  0  0  0  0  0  0  0  0  0
    8.0155   -2.1541   22.4325 N   0  0  0  0  0  0  0  0  0  0  0  0
    7.2305   -0.6898   20.7785 N   0  0  0  0  0  0  0  0  0  0  0  0
    9.6427    4.4175   23.5970 N   0  0  0  0  0  0  0  0  0  0  0  0
    8.6625    1.0133   24.4989 N   0  3  3  0  0  0  0  0  0  0  0  0
    8.8072    1.0451   21.0979 O   0  0  0  0  0  0  0  0  0  0  0  0
    6.1331   -2.7703   21.1550 O   0  0  0  0  0  0  0  0  0  0  0  0
    8.5253    3.6746   25.4656 O   0  0  0  0  0  0  0  0  0  0  0  0
   13.4284   -2.1434   21.1094 Cl  0  0  0  0  0  0  0  0  0  0  0  0
    2.5443    3.3508   20.6368 H   0  0  0  0  0  0  0  0  0  0  0  0
    3.5189    2.1137   22.5166 H   0  0  0  0  0  0  0  0  0  0  0  0
    3.3421    2.9744   18.3363 H   0  0  0  0  0  0  0  0  0  0  0  0
    5.3131    0.4893   22.1569 H   0  0  0  0  0  0  0  0  0  0  0  0
   12.5030    0.5934   24.9773 H   0  0  0  0  0  0  0  0  0  0  0  0
   13.9925   -0.5222   23.3814 H   0  0  0  0  0  0  0  0  0  0  0  0
   10.6063   -2.0227   21.2270 H   0  0  0  0  0  0  0  0  0  0  0  0
    4.9151    1.7511   16.7471 H   0  0  0  0  0  0  0  0  0  0  0  0
    7.6455   -0.9765   18.1038 H   0  0  0  0  0  0  0  0  0  0  0  0
    9.7404   -0.1134   25.8245 H   0  0  0  0  0  0  0  0  0  0  0  0
   10.4790    1.4547   25.3697 H   0  0  0  0  0  0  0  0  0  0  0  0
    6.8932    0.2956   23.5772 H   0  0  0  0  0  0  0  0  0  0  0  0
    7.6727   -0.8618   24.6786 H   0  0  0  0  0  0  0  0  0  0  0  0
    9.5662    2.0334   22.8697 H   0  0  0  0  0  0  0  0  0  0  0  0
    7.7873    2.2230   23.0235 H   0  0  0  0  0  0  0  0  0  0  0  0
    8.2159   -2.9452   22.8476 H   0  0  0  0  0  0  0  0  0  0  0  0
    9.9638    4.2121   22.6568 H   0  0  0  0  0  0  0  0  0  0  0  0
    9.8648    5.3373   23.9645 H   0  0  0  0  0  0  0  0  0  0  0  0
    8.1067    1.3400   25.3125 H   0  0  0  0  0  0  0  0  0  0  0  0
  1  2  2  0  0  0  0
  1  3  1  0  0  0  0
  2  4  1  0  0  0  0
  3 10  2  0  0  0  0
  4 11  2  0  0  0  0
  5  6  2  0  0  0  0
  5 12  1  0  0  0  0
  6 15  1  0  0  0  0
  7 13  1  0  0  0  0
  7 15  2  0  0  0  0
  8 10  1  0  0  0  0
  8 23  2  0  0  0  0
  9 14  2  0  0  0  0
  9 23  1  0  0  0  0
 10 11  1  0  0  0  0
 11 14  1  0  0  0  0
 12 13  2  0  0  0  0
 12 19  1  0  0  0  0
 13 21  1  6  0  0  0
 14 25  1  0  0  0  0
 15 31  1  0  0  0  0
 16 21  1  1  0  0  0
 16 25  1  0  0  0  0
 16 28  2  0  0  0  0
 17 24  1  0  0  0  0
 17 25  1  0  0  0  0
 17 29  2  0  0  0  0
 18 22  1  0  0  0  0
 18 26  1  0  0  0  0
 18 30  2  0  0  0  0
 19 27  1  0  0  0  0
 20 21  1  1  0  0  0
 20 27  1  0  0  0  0
 21 24  1  6  0  0  0
 22 27  1  0  0  0  0
  1 32  1  0  0  0  0
  2 33  1  0  0  0  0
  3 34  1  0  0  0  0
  4 35  1  0  0  0  0
  5 36  1  0  0  0  0
  6 37  1  0  0  0  0
  7 38  1  0  0  0  0
  8 39  1  0  0  0  0
  9 40  1  0  0  0  0
 19 41  1  0  0  0  0
 19 42  1  0  0  0  0
 20 43  1  0  0  0  0
 20 44  1  0  0  0  0
 22 45  1  0  0  0  0
 22 46  1  0  0  0  0
 24 47  1  0  0  0  0
 26 48  1  0  0  0  0
 26 49  1  0  0  0  0
 27 50  1  0  0  0  0
M  CHG  1  27   1
M  END
> <scaffold>
tetrahydroisoquinoline-5spiro-isoquinoline

> <compound>
VLA-MRT-a639d434-2

> <compound_smiles>
c1ccc2c(c1)cncc2N3C(=O)[C@@]4(CN(Cc5c4cc(cc5)Cl)CC(=O)N)NC3=O

> <enantiomer_smiles>
c1ccc2c(c1)cncc2N3C(=O)[C@@]4(C[N@](Cc5c4cc(cc5)Cl)CC(=O)N)NC3=O

> <clash_score>
0

> <docking_score>
3.4028234663852886e+38

> <overlap_score>
1.0

> <MMFF_internal_energy>
152.35319430983427

> <docked_smiles>
c1ccc2c(c1)cncc2N3C(=O)[C@@]4(C[N@@H+](Cc5c4cc(cc5)Cl)CC(=O)N)NC3=O

$$$$
MIK-ENA-794411b8-1_1
  -OEChem-01042202303D

 53 57  0     1  0  0  0  0  0999 V2000
    3.3444    2.6278   20.4409 C   0  0  0  0  0  0  0  0  0  0  0  0
    3.8974    1.9290   21.5048 C   0  0  0  0  0  0  0  0  0  0  0  0
    3.7877    2.4205   19.1658 C   0  0  0  0  0  0  0  0  0  0  0  0
    4.8986    1.0232   21.2985 C   0  0  0  0  0  0  0  0  0  0  0  0
   12.0781    0.0316   24.1532 C   0  0  0  0  0  0  0  0  0  0  0  0
   12.9147   -0.6032   23.2559 C   0  0  0  0  0  0  0  0  0  0  0  0
   11.0005   -1.4332   22.0435 C   0  0  0  0  0  0  0  0  0  0  0  0
    5.3288    1.2339   17.6062 C   0  0  0  0  0  0  0  0  0  0  0  0
    6.8449   -0.2893   18.3747 C   0  0  0  0  0  0  0  0  0  0  0  0
    4.8238    1.4906   18.9051 C   0  0  0  0  0  0  0  0  0  0  0  0
    5.3995    0.7732   19.9944 C   0  0  0  0  0  0  0  0  0  0  0  0
   10.7056   -0.0626   23.9890 C   0  0  0  0  0  0  0  0  0  0  0  0
   10.1421   -0.7766   22.9242 C   0  0  0  0  0  0  0  0  0  0  0  0
    6.4452   -0.1472   19.6975 C   0  0  0  0  0  0  0  0  0  0  0  0
   12.3697   -1.3298   22.2224 C   0  0  0  0  0  0  0  0  0  0  0  0
    9.9496    0.5589   24.9527 C   0  0  0  0  0  0  0  0  0  0  0  0
    8.2504    0.0168   21.4265 C   0  0  0  0  0  0  0  0  0  0  0  0
    7.2792    2.1116   26.0358 C   0  0  0  0  0  0  0  0  0  0  0  0
    8.0155   -2.1541   22.4325 C   0  0  0  0  0  0  0  0  0  0  0  0
    6.9880   -1.9367   21.3575 C   0  0  0  0  0  0  0  0  0  0  0  0
    7.8737   -0.1194   23.8825 C   0  0  0  0  0  0  0  0  0  0  0  0
    8.6253   -0.7606   22.6923 C   0  0  2  0  0  0  0  0  0  0  0  0
    6.5261    3.5003   27.9641 C   0  0  0  0  0  0  0  0  0  0  0  0
    8.0895    2.2244   24.7698 C   0  0  0  0  0  0  0  0  0  0  0  0
    6.3072    0.3768   17.3417 N   0  0  0  0  0  0  0  0  0  0  0  0
    7.2305   -0.6898   20.7785 N   0  0  0  0  0  0  0  0  0  0  0  0
    8.6625    1.0133   24.4989 N   0  0  0  0  0  0  0  0  0  0  0  0
    7.2361    3.3189   26.7184 N   0  0  0  0  0  0  0  0  0  0  0  0
   10.3247    0.7292   26.1099 O   0  0  0  0  0  0  0  0  0  0  0  0
    8.7593    1.0936   21.1345 O   0  0  0  0  0  0  0  0  0  0  0  0
    6.7321    1.0733   26.3978 O   0  0  0  0  0  0  0  0  0  0  0  0
   13.4296   -2.1374   21.1065 Cl  0  0  0  0  0  0  0  0  0  0  0  0
    2.5443    3.3508   20.6368 H   0  0  0  0  0  0  0  0  0  0  0  0
    3.5189    2.1137   22.5166 H   0  0  0  0  0  0  0  0  0  0  0  0
    3.3421    2.9744   18.3363 H   0  0  0  0  0  0  0  0  0  0  0  0
    5.3131    0.4893   22.1569 H   0  0  0  0  0  0  0  0  0  0  0  0
   12.5188    0.5915   24.9741 H   0  0  0  0  0  0  0  0  0  0  0  0
   13.9920   -0.5158   23.3776 H   0  0  0  0  0  0  0  0  0  0  0  0
   10.6146   -2.0177   21.2211 H   0  0  0  0  0  0  0  0  0  0  0  0
    4.9151    1.7511   16.7471 H   0  0  0  0  0  0  0  0  0  0  0  0
    7.6455   -0.9765   18.1038 H   0  0  0  0  0  0  0  0  0  0  0  0
    7.5792   -2.6155   23.3299 H   0  0  0  0  0  0  0  0  0  0  0  0
    8.7859   -2.8460   22.0568 H   0  0  0  0  0  0  0  0  0  0  0  0
    7.0238   -2.7512   20.5947 H   0  0  0  0  0  0  0  0  0  0  0  0
    5.9568   -1.9488   21.7835 H   0  0  0  0  0  0  0  0  0  0  0  0
    6.9033    0.2704   23.5727 H   0  0  0  0  0  0  0  0  0  0  0  0
    7.7066   -0.8358   24.6899 H   0  0  0  0  0  0  0  0  0  0  0  0
    5.4924    3.8130   27.7553 H   0  0  0  0  0  0  0  0  0  0  0  0
    6.5168    2.5525   28.5221 H   0  0  0  0  0  0  0  0  0  0  0  0
    7.0290    4.2737   28.5633 H   0  0  0  0  0  0  0  0  0  0  0  0
    7.4384    2.5157   23.9403 H   0  0  0  0  0  0  0  0  0  0  0  0
    8.8731    2.9771   24.8968 H   0  0  0  0  0  0  0  0  0  0  0  0
    7.7281    4.1148   26.3229 H   0  0  0  0  0  0  0  0  0  0  0  0
  1  2  2  0  0  0  0
  1  3  1  0  0  0  0
  2  4  1  0  0  0  0
  3 10  2  0  0  0  0
  4 11  2  0  0  0  0
  5  6  2  0  0  0  0
  5 12  1  0  0  0  0
  6 15  1  0  0  0  0
  7 13  1  0  0  0  0
  7 15  2  0  0  0  0
  8 10  1  0  0  0  0
  8 25  2  0  0  0  0
  9 14  2  0  0  0  0
  9 25  1  0  0  0  0
 10 11  1  0  0  0  0
 11 14  1  0  0  0  0
 12 13  2  0  0  0  0
 12 16  1  0  0  0  0
 13 22  1  6  0  0  0
 14 26  1  0  0  0  0
 15 32  1  0  0  0  0
 16 27  1  0  0  0  0
 16 29  2  0  0  0  0
 17 22  1  6  0  0  0
 17 26  1  0  0  0  0
 17 30  2  0  0  0  0
 18 24  1  0  0  0  0
 18 28  1  0  0  0  0
 18 31  2  0  0  0  0
 19 20  1  0  0  0  0
 19 22  1  1  0  0  0
 20 26  1  0  0  0  0
 21 22  1  1  0  0  0
 21 27  1  0  0  0  0
 23 28  1  0  0  0  0
 24 27  1  0  0  0  0
  1 33  1  0  0  0  0
  2 34  1  0  0  0  0
  3 35  1  0  0  0  0
  4 36  1  0  0  0  0
  5 37  1  0  0  0  0
  6 38  1  0  0  0  0
  7 39  1  0  0  0  0
  8 40  1  0  0  0  0
  9 41  1  0  0  0  0
 19 42  1  0  0  0  0
 19 43  1  0  0  0  0
 20 44  1  0  0  0  0
 20 45  1  0  0  0  0
 21 46  1  0  0  0  0
 21 47  1  0  0  0  0
 23 48  1  0  0  0  0
 23 49  1  0  0  0  0
 23 50  1  0  0  0  0
 24 51  1  0  0  0  0
 24 52  1  0  0  0  0
 28 53  1  0  0  0  0
M  END
> <scaffold>
tetrahydroisoquinoline-5spiro-isoquinoline

> <compound>
MIK-ENA-794411b8-1

> <compound_smiles>
CNC(=O)CN1C[C@@]2(CCN(C2=O)c3cncc4c3cccc4)c5cc(ccc5C1=O)Cl

> <enantiomer_smiles>
CNC(=O)CN1C[C@@]2(CCN(C2=O)c3cncc4c3cccc4)c5cc(ccc5C1=O)Cl

> <clash_score>
0

> <docking_score>
3.4028234663852886e+38

> <overlap_score>
0.9896607995033264

> <MMFF_internal_energy>
157.41263379231933

> <docked_smiles>
CNC(=O)CN1C[C@@]2(CCN(C2=O)c3cncc4c3cccc4)c5cc(ccc5C1=O)Cl

$$$$
VLA-UNK-f702bf1c-2_1
  -OEChem-01042202303D

 51 56  0     1  0  0  0  0  0999 V2000
    3.3444    2.6278   20.4409 C   0  0  0  0  0  0  0  0  0  0  0  0
    3.8974    1.9290   21.5048 C   0  0  0  0  0  0  0  0  0  0  0  0
    3.7877    2.4205   19.1658 C   0  0  0  0  0  0  0  0  0  0  0  0
    4.8986    1.0232   21.2985 C   0  0  0  0  0  0  0  0  0  0  0  0
   12.0781    0.0316   24.1532 C   0  0  0  0  0  0  0  0  0  0  0  0
   12.9147   -0.6032   23.2559 C   0  0  0  0  0  0  0  0  0  0  0  0
    9.9560   -4.9689   21.9854 C   0  0  0  0  0  0  0  0  0  0  0  0
   11.0005   -1.4332   22.0435 C   0  0  0  0  0  0  0  0  0  0  0  0
    9.7254   -5.9632   21.0159 C   0  0  0  0  0  0  0  0  0  0  0  0
    5.3288    1.2339   17.6062 C   0  0  0  0  0  0  0  0  0  0  0  0
    6.8449   -0.2893   18.3747 C   0  0  0  0  0  0  0  0  0  0  0  0
    4.8238    1.4906   18.9051 C   0  0  0  0  0  0  0  0  0  0  0  0
    5.3995    0.7732   19.9944 C   0  0  0  0  0  0  0  0  0  0  0  0
   10.1421   -0.7766   22.9242 C   0  0  0  0  0  0  0  0  0  0  0  0
    6.4452   -0.1472   19.6975 C   0  0  0  0  0  0  0  0  0  0  0  0
   10.7056   -0.0626   23.9890 C   0  0  0  0  0  0  0  0  0  0  0  0
   12.3697   -1.3298   22.2224 C   0  0  0  0  0  0  0  0  0  0  0  0
    8.7203   -4.4117   22.2065 C   0  0  0  0  0  0  0  0  0  0  0  0
    8.2504    0.0168   21.4265 C   0  0  0  0  0  0  0  0  0  0  0  0
    6.9880   -1.9367   21.3575 C   0  0  0  0  0  0  0  0  0  0  0  0
    7.8737   -0.1194   23.8825 C   0  0  0  0  0  0  0  0  0  0  0  0
    8.6625    1.0133   24.4989 C   0  0  0  0  0  0  0  0  0  0  0  0
    8.6253   -0.7606   22.6923 C   0  0  2  0  0  0  0  0  0  0  0  0
    8.2670   -3.3056   23.1149 C   0  0  0  0  0  0  0  0  0  0  0  0
    6.3072    0.3768   17.3417 N   0  0  0  0  0  0  0  0  0  0  0  0
    8.4438   -6.0360   20.6467 N   0  0  0  0  0  0  0  0  0  0  0  0
    7.8581   -5.0803   21.3882 N   0  0  0  0  0  0  0  0  0  0  0  0
    7.2305   -0.6898   20.7785 N   0  0  0  0  0  0  0  0  0  0  0  0
    8.0155   -2.1541   22.4325 N   0  0  0  0  0  0  0  0  0  0  0  0
    8.8030    1.0413   21.0842 O   0  0  0  0  0  0  0  0  0  0  0  0
    6.1158   -2.7517   21.1386 O   0  0  0  0  0  0  0  0  0  0  0  0
    9.9496    0.5589   24.9527 O   0  0  0  0  0  0  0  0  0  0  0  0
   13.4278   -2.1472   21.1115 Cl  0  0  0  0  0  0  0  0  0  0  0  0
    2.5443    3.3508   20.6368 H   0  0  0  0  0  0  0  0  0  0  0  0
    3.5189    2.1137   22.5166 H   0  0  0  0  0  0  0  0  0  0  0  0
    3.3421    2.9744   18.3363 H   0  0  0  0  0  0  0  0  0  0  0  0
    5.3131    0.4893   22.1569 H   0  0  0  0  0  0  0  0  0  0  0  0
   12.5017    0.6065   24.9715 H   0  0  0  0  0  0  0  0  0  0  0  0
   13.9924   -0.5157   23.3773 H   0  0  0  0  0  0  0  0  0  0  0  0
   10.8893   -4.6950   22.4554 H   0  0  0  0  0  0  0  0  0  0  0  0
   10.6031   -2.0252   21.2295 H   0  0  0  0  0  0  0  0  0  0  0  0
   10.4378   -6.6375   20.5628 H   0  0  0  0  0  0  0  0  0  0  0  0
    4.9151    1.7511   16.7471 H   0  0  0  0  0  0  0  0  0  0  0  0
    7.6455   -0.9765   18.1038 H   0  0  0  0  0  0  0  0  0  0  0  0
    7.7144   -0.8754   24.6692 H   0  0  0  0  0  0  0  0  0  0  0  0
    6.8760    0.2356   23.5741 H   0  0  0  0  0  0  0  0  0  0  0  0
    8.8025    1.8559   23.8153 H   0  0  0  0  0  0  0  0  0  0  0  0
    8.1356    1.3957   25.3777 H   0  0  0  0  0  0  0  0  0  0  0  0
    7.3470   -3.5881   23.6380 H   0  0  0  0  0  0  0  0  0  0  0  0
    9.0220   -3.0897   23.8782 H   0  0  0  0  0  0  0  0  0  0  0  0
    6.8608   -4.9387   21.2846 H   0  0  0  0  0  0  0  0  0  0  0  0
  1  2  2  0  0  0  0
  1  3  1  0  0  0  0
  2  4  1  0  0  0  0
  3 12  2  0  0  0  0
  4 13  2  0  0  0  0
  5  6  2  0  0  0  0
  5 16  1  0  0  0  0
  6 17  1  0  0  0  0
  7  9  1  0  0  0  0
  7 18  2  0  0  0  0
  8 14  1  0  0  0  0
  8 17  2  0  0  0  0
  9 26  2  0  0  0  0
 10 12  1  0  0  0  0
 10 25  2  0  0  0  0
 11 15  2  0  0  0  0
 11 25  1  0  0  0  0
 12 13  1  0  0  0  0
 13 15  1  0  0  0  0
 14 16  2  0  0  0  0
 14 23  1  6  0  0  0
 15 28  1  0  0  0  0
 16 32  1  0  0  0  0
 17 33  1  0  0  0  0
 18 24  1  0  0  0  0
 18 27  1  0  0  0  0
 19 23  1  1  0  0  0
 19 28  1  0  0  0  0
 19 30  2  0  0  0  0
 20 28  1  0  0  0  0
 20 29  1  0  0  0  0
 20 31  2  0  0  0  0
 21 22  1  0  0  0  0
 21 23  1  1  0  0  0
 22 32  1  0  0  0  0
 23 29  1  6  0  0  0
 24 29  1  0  0  0  0
 26 27  1  0  0  0  0
  1 34  1  0  0  0  0
  2 35  1  0  0  0  0
  3 36  1  0  0  0  0
  4 37  1  0  0  0  0
  5 38  1  0  0  0  0
  6 39  1  0  0  0  0
  7 40  1  0  0  0  0
  8 41  1  0  0  0  0
  9 42  1  0  0  0  0
 10 43  1  0  0  0  0
 11 44  1  0  0  0  0
 21 45  1  0  0  0  0
 21 46  1  0  0  0  0
 22 47  1  0  0  0  0
 22 48  1  0  0  0  0
 24 49  1  0  0  0  0
 24 50  1  0  0  0  0
 27 51  1  0  0  0  0
M  END
> <scaffold>
chromane-5spiro-isoquinoline

> <compound>
VLA-UNK-f702bf1c-2

> <compound_smiles>
c1ccc2c(c1)cncc2N3C(=O)[C@@]4(CCOc5c4cc(cc5)Cl)N(C3=O)Cc6cc[nH]n6

> <enantiomer_smiles>
c1ccc2c(c1)cncc2N3C(=O)[C@@]4(CCOc5c4cc(cc5)Cl)N(C3=O)Cc6cc[nH]n6

> <clash_score>
4.60393465788926

> <docking_score>
3.4028234663852886e+38

> <overlap_score>
1.0

> <MMFF_internal_energy>
57.18602169772075

> <docked_smiles>
c1ccc2c(c1)cncc2N3C(=O)[C@@]4(CCOc5c4cc(cc5)Cl)N(C3=O)Cc6ccn[nH]6

$$$$
EDJ-MED-fd8ed875-1_1
  -OEChem-01042202303D

 51 55  0     1  0  0  0  0  0999 V2000
    3.3444    2.6278   20.4409 C   0  0  0  0  0  0  0  0  0  0  0  0
    3.8974    1.9290   21.5048 C   0  0  0  0  0  0  0  0  0  0  0  0
    3.7877    2.4205   19.1658 C   0  0  0  0  0  0  0  0  0  0  0  0
    4.8986    1.0232   21.2985 C   0  0  0  0  0  0  0  0  0  0  0  0
   12.0781    0.0316   24.1532 C   0  0  0  0  0  0  0  0  0  0  0  0
   12.9147   -0.6032   23.2559 C   0  0  0  0  0  0  0  0  0  0  0  0
   11.0005   -1.4332   22.0435 C   0  0  0  0  0  0  0  0  0  0  0  0
    5.3288    1.2339   17.6062 C   0  0  0  0  0  0  0  0  0  0  0  0
    6.8449   -0.2893   18.3747 C   0  0  0  0  0  0  0  0  0  0  0  0
    4.8238    1.4906   18.9051 C   0  0  0  0  0  0  0  0  0  0  0  0
    5.3995    0.7732   19.9944 C   0  0  0  0  0  0  0  0  0  0  0  0
   10.7056   -0.0626   23.9890 C   0  0  0  0  0  0  0  0  0  0  0  0
   10.1421   -0.7766   22.9242 C   0  0  0  0  0  0  0  0  0  0  0  0
    6.4452   -0.1472   19.6975 C   0  0  0  0  0  0  0  0  0  0  0  0
   12.3697   -1.3298   22.2224 C   0  0  0  0  0  0  0  0  0  0  0  0
    6.9880   -1.9367   21.3575 C   0  0  0  0  0  0  0  0  0  0  0  0
    9.9496    0.5589   24.9527 C   0  0  0  0  0  0  0  0  0  0  0  0
    8.2504    0.0168   21.4265 C   0  0  0  0  0  0  0  0  0  0  0  0
    7.2699    2.0919   26.0553 C   0  0  0  0  0  0  0  0  0  0  0  0
    7.8737   -0.1194   23.8825 C   0  0  0  0  0  0  0  0  0  0  0  0
    8.6253   -0.7606   22.6923 C   0  0  3  0  0  0  0  0  0  0  0  0
    6.5283    3.4647   27.9993 C   0  0  0  0  0  0  0  0  0  0  0  0
    8.0820    2.2121   24.7911 C   0  0  0  0  0  0  0  0  0  0  0  0
    6.3072    0.3768   17.3417 N   0  0  0  0  0  0  0  0  0  0  0  0
    7.2305   -0.6898   20.7785 N   0  0  0  0  0  0  0  0  0  0  0  0
    8.6625    1.0133   24.4989 N   0  0  0  0  0  0  0  0  0  0  0  0
    8.0155   -2.1541   22.4325 N   0  3  0  0  0  0  0  0  0  0  0  0
    7.2374    3.2914   26.7520 N   0  0  0  0  0  0  0  0  0  0  0  0
   10.3273    0.7345   26.1052 O   0  0  0  0  0  0  0  0  0  0  0  0
    8.7829    1.0591   21.0351 O   0  0  0  0  0  0  0  0  0  0  0  0
    6.7132    1.0544   26.4047 O   0  0  0  0  0  0  0  0  0  0  0  0
   13.4282   -2.1470   21.1117 Cl  0  0  0  0  0  0  0  0  0  0  0  0
    2.5442    3.3510   20.6363 H   0  0  0  0  0  0  0  0  0  0  0  0
    3.5187    2.1134   22.5165 H   0  0  0  0  0  0  0  0  0  0  0  0
    3.3428    2.9753   18.3365 H   0  0  0  0  0  0  0  0  0  0  0  0
    5.3156    0.4866   22.1542 H   0  0  0  0  0  0  0  0  0  0  0  0
   12.5187    0.5928   24.9733 H   0  0  0  0  0  0  0  0  0  0  0  0
   13.9919   -0.5255   23.3835 H   0  0  0  0  0  0  0  0  0  0  0  0
   10.6052   -2.0235   21.2273 H   0  0  0  0  0  0  0  0  0  0  0  0
    4.9147    1.7513   16.7472 H   0  0  0  0  0  0  0  0  0  0  0  0
    7.6465   -0.9763   18.1075 H   0  0  0  0  0  0  0  0  0  0  0  0
    6.2873   -2.6098   21.1563 H   0  0  0  0  0  0  0  0  0  0  0  0
    6.9274    0.3137   23.5622 H   0  0  0  0  0  0  0  0  0  0  0  0
    7.6784   -0.8560   24.6587 H   0  0  0  0  0  0  0  0  0  0  0  0
    5.4975    3.7892   27.7937 H   0  0  0  0  0  0  0  0  0  0  0  0
    6.5099    2.5104   28.5462 H   0  0  0  0  0  0  0  0  0  0  0  0
    7.0378    4.2263   28.6078 H   0  0  0  0  0  0  0  0  0  0  0  0
    7.4341    2.5191   23.9647 H   0  0  0  0  0  0  0  0  0  0  0  0
    8.8723    2.9561   24.9273 H   0  0  0  0  0  0  0  0  0  0  0  0
    8.1558   -3.0054   22.7702 H   0  0  0  0  0  0  0  0  0  0  0  0
    7.7369    4.0874   26.3661 H   0  0  0  0  0  0  0  0  0  0  0  0
  1  2  2  0  0  0  0
  1  3  1  0  0  0  0
  2  4  1  0  0  0  0
  3 10  2  0  0  0  0
  4 11  2  0  0  0  0
  5  6  2  0  0  0  0
  5 12  1  0  0  0  0
  6 15  1  0  0  0  0
  7 13  1  0  0  0  0
  7 15  2  0  0  0  0
  8 10  1  0  0  0  0
  8 24  2  0  0  0  0
  9 14  2  0  0  0  0
  9 24  1  0  0  0  0
 10 11  1  0  0  0  0
 11 14  1  0  0  0  0
 12 13  2  0  0  0  0
 12 17  1  0  0  0  0
 13 21  1  0  0  0  0
 14 25  1  0  0  0  0
 15 32  1  0  0  0  0
 16 25  1  0  0  0  0
 16 27  2  0  0  0  0
 17 26  1  0  0  0  0
 17 29  2  0  0  0  0
 18 21  1  0  0  0  0
 18 25  1  0  0  0  0
 18 30  2  0  0  0  0
 19 23  1  0  0  0  0
 19 28  1  0  0  0  0
 19 31  2  0  0  0  0
 20 21  1  0  0  0  0
 20 26  1  0  0  0  0
 21 27  1  0  0  0  0
 22 28  1  0  0  0  0
 23 26  1  0  0  0  0
  1 33  1  0  0  0  0
  2 34  1  0  0  0  0
  3 35  1  0  0  0  0
  4 36  1  0  0  0  0
  5 37  1  0  0  0  0
  6 38  1  0  0  0  0
  7 39  1  0  0  0  0
  8 40  1  0  0  0  0
  9 41  1  0  0  0  0
 16 42  1  0  0  0  0
 20 43  1  0  0  0  0
 20 44  1  0  0  0  0
 22 45  1  0  0  0  0
 22 46  1  0  0  0  0
 22 47  1  0  0  0  0
 23 48  1  0  0  0  0
 23 49  1  0  0  0  0
 27 50  1  0  0  0  0
 28 51  1  0  0  0  0
M  CHG  1  27   1
M  END
> <scaffold>
tetrahydroisoquinoline-5spiro-isoquinoline

> <compound>
EDJ-MED-fd8ed875-1

> <compound_smiles>
CNC(=O)CN1CC2(c3cc(ccc3C1=O)Cl)C(=O)N(C=N2)c4cncc5c4cccc5

> <enantiomer_smiles>
CNC(=O)CN1C[C@@]2(c3cc(ccc3C1=O)Cl)C(=O)N(C=N2)c4cncc5c4cccc5

> <clash_score>
0

> <docking_score>
3.4028234663852886e+38

> <overlap_score>
0.9895532131195068

> <MMFF_internal_energy>
234.64202275173986

> <docked_smiles>
CNC(=O)CN1C[C@@]2(c3cc(ccc3C1=O)Cl)C(=O)N(C=[NH+]2)c4cncc5c4cccc5

$$$$
MAT-POS-1bed62cf-2_1
  -OEChem-01042202303D

 52 56  0     1  0  0  0  0  0999 V2000
    3.3444    2.6278   20.4409 C   0  0  0  0  0  0  0  0  0  0  0  0
    3.8974    1.9290   21.5048 C   0  0  0  0  0  0  0  0  0  0  0  0
    3.7877    2.4205   19.1658 C   0  0  0  0  0  0  0  0  0  0  0  0
    4.8986    1.0232   21.2985 C   0  0  0  0  0  0  0  0  0  0  0  0
   12.0781    0.0316   24.1532 C   0  0  0  0  0  0  0  0  0  0  0  0
   12.9147   -0.6032   23.2559 C   0  0  0  0  0  0  0  0  0  0  0  0
   11.0005   -1.4332   22.0435 C   0  0  0  0  0  0  0  0  0  0  0  0
    5.3288    1.2339   17.6062 C   0  0  0  0  0  0  0  0  0  0  0  0
    6.8449   -0.2893   18.3747 C   0  0  0  0  0  0  0  0  0  0  0  0
    4.8238    1.4906   18.9051 C   0  0  0  0  0  0  0  0  0  0  0  0
    5.3995    0.7732   19.9944 C   0  0  0  0  0  0  0  0  0  0  0  0
   10.7056   -0.0626   23.9890 C   0  0  0  0  0  0  0  0  0  0  0  0
   10.1421   -0.7766   22.9242 C   0  0  0  0  0  0  0  0  0  0  0  0
    6.4452   -0.1472   19.6975 C   0  0  0  0  0  0  0  0  0  0  0  0
   12.3697   -1.3298   22.2224 C   0  0  0  0  0  0  0  0  0  0  0  0
    9.9496    0.5589   24.9527 C   0  0  0  0  0  0  0  0  0  0  0  0
    6.9880   -1.9367   21.3575 C   0  0  0  0  0  0  0  0  0  0  0  0
    8.2504    0.0168   21.4265 C   0  0  0  0  0  0  0  0  0  0  0  0
    7.2621    2.1070   26.0495 C   0  0  0  0  0  0  0  0  0  0  0  0
    8.0155   -2.1541   22.4325 C   0  0  0  0  0  0  0  0  0  0  0  0
    7.8737   -0.1194   23.8825 C   0  0  0  0  0  0  0  0  0  0  0  0
    8.6253   -0.7606   22.6923 C   0  0  3  0  0  0  0  0  0  0  0  0
    6.4986    3.5024   27.9688 C   0  0  0  0  0  0  0  0  0  0  0  0
    8.0823    2.2144   24.7894 C   0  0  0  0  0  0  0  0  0  0  0  0
    6.3072    0.3768   17.3417 N   0  0  0  0  0  0  0  0  0  0  0  0
    7.2305   -0.6898   20.7785 N   0  0  0  0  0  0  0  0  0  0  0  0
    8.6625    1.0133   24.4989 N   0  0  0  0  0  0  0  0  0  0  0  0
    7.2174    3.3160   26.7289 N   0  0  0  0  0  0  0  0  0  0  0  0
   10.3273    0.7360   26.1061 O   0  0  0  0  0  0  0  0  0  0  0  0
    6.1283   -2.7644   21.0979 O   0  0  0  0  0  0  0  0  0  0  0  0
    8.7920    1.0603   21.1002 O   0  0  0  0  0  0  0  0  0  0  0  0
    6.7094    1.0711   26.4098 O   0  0  0  0  0  0  0  0  0  0  0  0
   13.4283   -2.1312   21.1004 Cl  0  0  0  0  0  0  0  0  0  0  0  0
    2.5443    3.3508   20.6368 H   0  0  0  0  0  0  0  0  0  0  0  0
    3.5189    2.1137   22.5166 H   0  0  0  0  0  0  0  0  0  0  0  0
    3.3421    2.9744   18.3363 H   0  0  0  0  0  0  0  0  0  0  0  0
    5.3131    0.4893   22.1569 H   0  0  0  0  0  0  0  0  0  0  0  0
   12.5198    0.5961   24.9699 H   0  0  0  0  0  0  0  0  0  0  0  0
   13.9920   -0.5097   23.3723 H   0  0  0  0  0  0  0  0  0  0  0  0
   10.6069   -2.0138   21.2208 H   0  0  0  0  0  0  0  0  0  0  0  0
    4.9151    1.7511   16.7471 H   0  0  0  0  0  0  0  0  0  0  0  0
    7.6455   -0.9765   18.1038 H   0  0  0  0  0  0  0  0  0  0  0  0
    7.4972   -2.5593   23.3105 H   0  0  0  0  0  0  0  0  0  0  0  0
    8.7600   -2.8848   22.0982 H   0  0  0  0  0  0  0  0  0  0  0  0
    6.9062    0.2736   23.5772 H   0  0  0  0  0  0  0  0  0  0  0  0
    7.7145   -0.8339   24.6899 H   0  0  0  0  0  0  0  0  0  0  0  0
    5.4673    3.8175   27.7515 H   0  0  0  0  0  0  0  0  0  0  0  0
    6.4823    2.5559   28.5290 H   0  0  0  0  0  0  0  0  0  0  0  0
    6.9992    4.2758   28.5699 H   0  0  0  0  0  0  0  0  0  0  0  0
    7.4382    2.5056   23.9543 H   0  0  0  0  0  0  0  0  0  0  0  0
    8.8670    2.9652   24.9204 H   0  0  0  0  0  0  0  0  0  0  0  0
    7.7146    4.1095   26.3353 H   0  0  0  0  0  0  0  0  0  0  0  0
  1  2  2  0  0  0  0
  1  3  1  0  0  0  0
  2  4  1  0  0  0  0
  3 10  2  0  0  0  0
  4 11  2  0  0  0  0
  5  6  2  0  0  0  0
  5 12  1  0  0  0  0
  6 15  1  0  0  0  0
  7 13  1  0  0  0  0
  7 15  2  0  0  0  0
  8 10  1  0  0  0  0
  8 25  2  0  0  0  0
  9 14  2  0  0  0  0
  9 25  1  0  0  0  0
 10 11  1  0  0  0  0
 11 14  1  0  0  0  0
 12 13  2  0  0  0  0
 12 16  1  0  0  0  0
 13 22  1  0  0  0  0
 14 26  1  0  0  0  0
 15 33  1  0  0  0  0
 16 27  1  0  0  0  0
 16 29  2  0  0  0  0
 17 20  1  0  0  0  0
 17 26  1  0  0  0  0
 17 30  2  0  0  0  0
 18 22  1  0  0  0  0
 18 26  1  0  0  0  0
 18 31  2  0  0  0  0
 19 24  1  0  0  0  0
 19 28  1  0  0  0  0
 19 32  2  0  0  0  0
 20 22  1  0  0  0  0
 21 22  1  0  0  0  0
 21 27  1  0  0  0  0
 23 28  1  0  0  0  0
 24 27  1  0  0  0  0
  1 34  1  0  0  0  0
  2 35  1  0  0  0  0
  3 36  1  0  0  0  0
  4 37  1  0  0  0  0
  5 38  1  0  0  0  0
  6 39  1  0  0  0  0
  7 40  1  0  0  0  0
  8 41  1  0  0  0  0
  9 42  1  0  0  0  0
 20 43  1  0  0  0  0
 20 44  1  0  0  0  0
 21 45  1  0  0  0  0
 21 46  1  0  0  0  0
 23 47  1  0  0  0  0
 23 48  1  0  0  0  0
 23 49  1  0  0  0  0
 24 50  1  0  0  0  0
 24 51  1  0  0  0  0
 28 52  1  0  0  0  0
M  END
> <scaffold>
tetrahydroisoquinoline-5spiro-isoquinoline

> <compound>
MAT-POS-1bed62cf-2

> <compound_smiles>
CNC(=O)CN1CC2(CC(=O)N(C2=O)c3cncc4c3cccc4)c5cc(ccc5C1=O)Cl

> <enantiomer_smiles>
CNC(=O)CN1C[C@@]2(CC(=O)N(C2=O)c3cncc4c3cccc4)c5cc(ccc5C1=O)Cl

> <clash_score>
0

> <docking_score>
3.4028234663852886e+38

> <overlap_score>
1.0150593519210815

> <MMFF_internal_energy>
122.88919940691524

> <docked_smiles>
CNC(=O)CN1C[C@@]2(CC(=O)N(C2=O)c3cncc4c3cccc4)c5cc(ccc5C1=O)Cl

$$$$
EDG-MED-b1ef7fe3-1_1
  -OEChem-01042202303D

 53 57  0     1  0  0  0  0  0999 V2000
    3.7877    2.4205   19.1658 C   0  0  0  0  0  0  0  0  0  0  0  0
   12.0781    0.0316   24.1532 C   0  0  0  0  0  0  0  0  0  0  0  0
    3.3444    2.6278   20.4409 C   0  0  0  0  0  0  0  0  0  0  0  0
   12.9147   -0.6032   23.2559 C   0  0  0  0  0  0  0  0  0  0  0  0
    4.8986    1.0232   21.2985 C   0  0  0  0  0  0  0  0  0  0  0  0
   11.0005   -1.4332   22.0435 C   0  0  0  0  0  0  0  0  0  0  0  0
    5.3288    1.2339   17.6062 C   0  0  0  0  0  0  0  0  0  0  0  0
    6.8449   -0.2893   18.3747 C   0  0  0  0  0  0  0  0  0  0  0  0
    4.8238    1.4906   18.9051 C   0  0  0  0  0  0  0  0  0  0  0  0
    5.3995    0.7732   19.9944 C   0  0  0  0  0  0  0  0  0  0  0  0
   10.7056   -0.0626   23.9890 C   0  0  0  0  0  0  0  0  0  0  0  0
   10.1421   -0.7766   22.9242 C   0  0  0  0  0  0  0  0  0  0  0  0
    6.4452   -0.1472   19.6975 C   0  0  0  0  0  0  0  0  0  0  0  0
    3.8974    1.9290   21.5048 C   0  0  0  0  0  0  0  0  0  0  0  0
   12.3697   -1.3298   22.2224 C   0  0  0  0  0  0  0  0  0  0  0  0
    9.9496    0.5589   24.9527 C   0  0  0  0  0  0  0  0  0  0  0  0
    8.2504    0.0168   21.4265 C   0  0  0  0  0  0  0  0  0  0  0  0
    7.2900    2.1445   26.0369 C   0  0  0  0  0  0  0  0  0  0  0  0
    8.0155   -2.1541   22.4325 C   0  0  0  0  0  0  0  0  0  0  0  0
    6.9880   -1.9367   21.3575 C   0  0  0  0  0  0  0  0  0  0  0  0
    7.8737   -0.1194   23.8825 C   0  0  0  0  0  0  0  0  0  0  0  0
    8.6253   -0.7606   22.6923 C   0  0  3  0  0  0  0  0  0  0  0  0
    6.5711    3.5767   27.9463 C   0  0  0  0  0  0  0  0  0  0  0  0
    8.0937    2.2235   24.7641 C   0  0  0  0  0  0  0  0  0  0  0  0
    6.3072    0.3768   17.3417 N   0  0  0  0  0  0  0  0  0  0  0  0
    7.2305   -0.6898   20.7785 N   0  0  0  0  0  0  0  0  0  0  0  0
    8.6625    1.0133   24.4989 N   0  0  0  0  0  0  0  0  0  0  0  0
    7.2701    3.3635   26.6994 N   0  0  0  0  0  0  0  0  0  0  0  0
   10.3233    0.7301   26.1084 O   0  0  0  0  0  0  0  0  0  0  0  0
    8.8205    1.0412   21.0776 O   0  0  0  0  0  0  0  0  0  0  0  0
    6.7292    1.1210   26.4195 O   0  0  0  0  0  0  0  0  0  0  0  0
    3.3016    2.2179   23.1046 Cl  0  0  0  0  0  0  0  0  0  0  0  0
   13.4288   -2.1465   21.1124 Cl  0  0  0  0  0  0  0  0  0  0  0  0
    3.3428    2.9749   18.3362 H   0  0  0  0  0  0  0  0  0  0  0  0
   12.5188    0.5961   24.9710 H   0  0  0  0  0  0  0  0  0  0  0  0
    2.5426    3.3541   20.6217 H   0  0  0  0  0  0  0  0  0  0  0  0
   13.9920   -0.5226   23.3817 H   0  0  0  0  0  0  0  0  0  0  0  0
    5.3233    0.4799   22.1471 H   0  0  0  0  0  0  0  0  0  0  0  0
   10.6143   -2.0253   21.2266 H   0  0  0  0  0  0  0  0  0  0  0  0
    4.9142    1.7509   16.7472 H   0  0  0  0  0  0  0  0  0  0  0  0
    7.6458   -0.9763   18.1041 H   0  0  0  0  0  0  0  0  0  0  0  0
    7.5128   -2.5277   23.3386 H   0  0  0  0  0  0  0  0  0  0  0  0
    8.7593   -2.9102   22.1430 H   0  0  0  0  0  0  0  0  0  0  0  0
    7.0602   -2.7255   20.5716 H   0  0  0  0  0  0  0  0  0  0  0  0
    5.9526   -1.9964   21.7706 H   0  0  0  0  0  0  0  0  0  0  0  0
    6.9217    0.3182   23.5732 H   0  0  0  0  0  0  0  0  0  0  0  0
    7.6678   -0.8543   24.6617 H   0  0  0  0  0  0  0  0  0  0  0  0
    5.5409    3.9020   27.7387 H   0  0  0  0  0  0  0  0  0  0  0  0
    6.5506    2.6385   28.5201 H   0  0  0  0  0  0  0  0  0  0  0  0
    7.0898    4.3520   28.5293 H   0  0  0  0  0  0  0  0  0  0  0  0
    7.4419    2.5111   23.9339 H   0  0  0  0  0  0  0  0  0  0  0  0
    8.8897    2.9659   24.8736 H   0  0  0  0  0  0  0  0  0  0  0  0
    7.7718    4.1449   26.2876 H   0  0  0  0  0  0  0  0  0  0  0  0
  1  3  2  0  0  0  0
  1  9  1  0  0  0  0
  2  4  2  0  0  0  0
  2 11  1  0  0  0  0
  3 14  1  0  0  0  0
  4 15  1  0  0  0  0
  5 10  1  0  0  0  0
  5 14  2  0  0  0  0
  6 12  1  0  0  0  0
  6 15  2  0  0  0  0
  7  9  2  0  0  0  0
  7 25  1  0  0  0  0
  8 13  1  0  0  0  0
  8 25  2  0  0  0  0
  9 10  1  0  0  0  0
 10 13  2  0  0  0  0
 11 12  2  0  0  0  0
 11 16  1  0  0  0  0
 12 22  1  0  0  0  0
 13 26  1  0  0  0  0
 14 32  1  0  0  0  0
 15 33  1  0  0  0  0
 16 27  1  0  0  0  0
 16 29  2  0  0  0  0
 17 22  1  0  0  0  0
 17 26  1  0  0  0  0
 17 30  2  0  0  0  0
 18 24  1  0  0  0  0
 18 28  1  0  0  0  0
 18 31  2  0  0  0  0
 19 20  1  0  0  0  0
 19 22  1  0  0  0  0
 20 26  1  0  0  0  0
 21 22  1  0  0  0  0
 21 27  1  0  0  0  0
 23 28  1  0  0  0  0
 24 27  1  0  0  0  0
  1 34  1  0  0  0  0
  2 35  1  0  0  0  0
  3 36  1  0  0  0  0
  4 37  1  0  0  0  0
  5 38  1  0  0  0  0
  6 39  1  0  0  0  0
  7 40  1  0  0  0  0
  8 41  1  0  0  0  0
 19 42  1  0  0  0  0
 19 43  1  0  0  0  0
 20 44  1  0  0  0  0
 20 45  1  0  0  0  0
 21 46  1  0  0  0  0
 21 47  1  0  0  0  0
 23 48  1  0  0  0  0
 23 49  1  0  0  0  0
 23 50  1  0  0  0  0
 24 51  1  0  0  0  0
 24 52  1  0  0  0  0
 28 53  1  0  0  0  0
M  END
> <scaffold>
tetrahydroisoquinoline-5spiro-isoquinoline

> <compound>
EDG-MED-b1ef7fe3-1

> <compound_smiles>
CNC(=O)CN1CC2(CCN(C2=O)c3cncc4c3cc(cc4)Cl)c5cc(ccc5C1=O)Cl

> <enantiomer_smiles>
CNC(=O)CN1C[C@]2(CCN(C2=O)c3cncc4c3cc(cc4)Cl)c5cc(ccc5C1=O)Cl

> <clash_score>
0

> <docking_score>
3.4028234663852886e+38

> <overlap_score>
1.0

> <MMFF_internal_energy>
153.14857383374658

> <docked_smiles>
CNC(=O)CN1C[C@]2(CCN(C2=O)c3cncc4c3cc(cc4)Cl)c5cc(ccc5C1=O)Cl

$$$$
MAT-POS-1d5ab790-2_1
  -OEChem-01042202303D

 55 59  0     1  0  0  0  0  0999 V2000
    3.3444    2.6278   20.4409 C   0  0  0  0  0  0  0  0  0  0  0  0
    3.7877    2.4205   19.1658 C   0  0  0  0  0  0  0  0  0  0  0  0
   12.0781    0.0316   24.1532 C   0  0  0  0  0  0  0  0  0  0  0  0
    3.8974    1.9290   21.5048 C   0  0  0  0  0  0  0  0  0  0  0  0
   12.9147   -0.6032   23.2559 C   0  0  0  0  0  0  0  0  0  0  0  0
   11.0005   -1.4332   22.0435 C   0  0  0  0  0  0  0  0  0  0  0  0
    5.3288    1.2339   17.6062 C   0  0  0  0  0  0  0  0  0  0  0  0
    6.8449   -0.2893   18.3747 C   0  0  0  0  0  0  0  0  0  0  0  0
    4.8238    1.4906   18.9051 C   0  0  0  0  0  0  0  0  0  0  0  0
    5.3995    0.7732   19.9944 C   0  0  0  0  0  0  0  0  0  0  0  0
   10.7056   -0.0626   23.9890 C   0  0  0  0  0  0  0  0  0  0  0  0
   10.1421   -0.7766   22.9242 C   0  0  0  0  0  0  0  0  0  0  0  0
    6.4452   -0.1472   19.6975 C   0  0  0  0  0  0  0  0  0  0  0  0
   12.3697   -1.3298   22.2224 C   0  0  0  0  0  0  0  0  0  0  0  0
    4.8986    1.0232   21.2985 C   0  0  0  0  0  0  0  0  0  0  0  0
    8.2504    0.0168   21.4265 C   0  0  0  0  0  0  0  0  0  0  0  0
    8.9551    3.4804   24.3212 C   0  0  0  0  0  0  0  0  0  0  0  0
    9.9496    0.5589   24.9527 C   0  0  0  0  0  0  0  0  0  0  0  0
    8.0155   -2.1541   22.4325 C   0  0  0  0  0  0  0  0  0  0  0  0
    6.9880   -1.9367   21.3575 C   0  0  0  0  0  0  0  0  0  0  0  0
    7.8737   -0.1194   23.8825 C   0  0  0  0  0  0  0  0  0  0  0  0
    8.6253   -0.7606   22.6923 C   0  0  3  0  0  0  0  0  0  0  0  0
   10.0507    5.6924   24.1106 C   0  0  0  0  0  0  0  0  0  0  0  0
    8.7443    2.1971   23.5578 C   0  0  0  0  0  0  0  0  0  0  0  0
    6.3072    0.3768   17.3417 N   0  0  0  0  0  0  0  0  0  0  0  0
    7.2305   -0.6898   20.7785 N   0  0  0  0  0  0  0  0  0  0  0  0
    9.7126    4.3872   23.5950 N   0  0  0  0  0  0  0  0  0  0  0  0
    8.6625    1.0133   24.4989 N   0  3  3  0  0  0  0  0  0  0  0  0
    8.8291    1.0404   21.0787 O   0  0  0  0  0  0  0  0  0  0  0  0
    8.5023    3.6782   25.4455 O   0  0  0  0  0  0  0  0  0  0  0  0
   13.4297   -2.1460   21.1125 Cl  0  0  0  0  0  0  0  0  0  0  0  0
    5.4637    0.2451   22.7511 Cl  0  0  0  0  0  0  0  0  0  0  0  0
    2.5436    3.3504   20.6371 H   0  0  0  0  0  0  0  0  0  0  0  0
    3.3414    2.9737   18.3360 H   0  0  0  0  0  0  0  0  0  0  0  0
   12.5046    0.5858   24.9813 H   0  0  0  0  0  0  0  0  0  0  0  0
    3.5007    2.1328   22.5078 H   0  0  0  0  0  0  0  0  0  0  0  0
   13.9929   -0.5292   23.3866 H   0  0  0  0  0  0  0  0  0  0  0  0
   10.6137   -2.0322   21.2341 H   0  0  0  0  0  0  0  0  0  0  0  0
    4.9145    1.7510   16.7474 H   0  0  0  0  0  0  0  0  0  0  0  0
    7.6459   -0.9748   18.1001 H   0  0  0  0  0  0  0  0  0  0  0  0
    9.7380   -0.1173   25.8240 H   0  0  0  0  0  0  0  0  0  0  0  0
   10.4796    1.4523   25.3816 H   0  0  0  0  0  0  0  0  0  0  0  0
    7.5143   -2.5729   23.3172 H   0  0  0  0  0  0  0  0  0  0  0  0
    8.7710   -2.8989   22.1374 H   0  0  0  0  0  0  0  0  0  0  0  0
    7.0583   -2.7255   20.5709 H   0  0  0  0  0  0  0  0  0  0  0  0
    5.9522   -1.9959   21.7710 H   0  0  0  0  0  0  0  0  0  0  0  0
    6.9019    0.3068   23.5766 H   0  0  0  0  0  0  0  0  0  0  0  0
    7.6846   -0.8453   24.6915 H   0  0  0  0  0  0  0  0  0  0  0  0
    9.2850    6.4191   23.8013 H   0  0  0  0  0  0  0  0  0  0  0  0
   10.0955    5.6523   25.2090 H   0  0  0  0  0  0  0  0  0  0  0  0
   11.0297    6.0006   23.7147 H   0  0  0  0  0  0  0  0  0  0  0  0
    9.5905    2.0041   22.8926 H   0  0  0  0  0  0  0  0  0  0  0  0
    7.8131    2.2429   22.9863 H   0  0  0  0  0  0  0  0  0  0  0  0
   10.0655    4.1262   22.6787 H   0  0  0  0  0  0  0  0  0  0  0  0
    8.1086    1.3497   25.3113 H   0  0  0  0  0  0  0  0  0  0  0  0
  1  2  2  0  0  0  0
  1  4  1  0  0  0  0
  2  9  1  0  0  0  0
  3  5  2  0  0  0  0
  3 11  1  0  0  0  0
  4 15  2  0  0  0  0
  5 14  1  0  0  0  0
  6 12  1  0  0  0  0
  6 14  2  0  0  0  0
  7  9  2  0  0  0  0
  7 25  1  0  0  0  0
  8 13  1  0  0  0  0
  8 25  2  0  0  0  0
  9 10  1  0  0  0  0
 10 13  2  0  0  0  0
 10 15  1  0  0  0  0
 11 12  2  0  0  0  0
 11 18  1  0  0  0  0
 12 22  1  0  0  0  0
 13 26  1  0  0  0  0
 14 31  1  0  0  0  0
 15 32  1  0  0  0  0
 16 22  1  0  0  0  0
 16 26  1  0  0  0  0
 16 29  2  0  0  0  0
 17 24  1  0  0  0  0
 17 27  1  0  0  0  0
 17 30  2  0  0  0  0
 18 28  1  0  0  0  0
 19 20  1  0  0  0  0
 19 22  1  0  0  0  0
 20 26  1  0  0  0  0
 21 22  1  0  0  0  0
 21 28  1  0  0  0  0
 23 27  1  0  0  0  0
 24 28  1  0  0  0  0
  1 33  1  0  0  0  0
  2 34  1  0  0  0  0
  3 35  1  0  0  0  0
  4 36  1  0  0  0  0
  5 37  1  0  0  0  0
  6 38  1  0  0  0  0
  7 39  1  0  0  0  0
  8 40  1  0  0  0  0
 18 41  1  0  0  0  0
 18 42  1  0  0  0  0
 19 43  1  0  0  0  0
 19 44  1  0  0  0  0
 20 45  1  0  0  0  0
 20 46  1  0  0  0  0
 21 47  1  0  0  0  0
 21 48  1  0  0  0  0
 23 49  1  0  0  0  0
 23 50  1  0  0  0  0
 23 51  1  0  0  0  0
 24 52  1  0  0  0  0
 24 53  1  0  0  0  0
 27 54  1  0  0  0  0
 28 55  1  0  0  0  0
M  CHG  1  28   1
M  END
> <scaffold>
tetrahydroisoquinoline-5spiro-isoquinoline

> <compound>
MAT-POS-1d5ab790-2

> <compound_smiles>
CNC(=O)CN1Cc2ccc(cc2C3(C1)CCN(C3=O)c4cncc5c4c(ccc5)Cl)Cl

> <enantiomer_smiles>
CNC(=O)C[N@]1Cc2ccc(cc2[C@@]3(C1)CCN(C3=O)c4cncc5c4c(ccc5)Cl)Cl

> <clash_score>
0

> <docking_score>
3.4028234663852886e+38

> <overlap_score>
0.9859179258346558

> <MMFF_internal_energy>
226.174825640548

> <docked_smiles>
CNC(=O)C[N@@H+]1Cc2ccc(cc2[C@@]3(C1)CCN(C3=O)c4cncc5c4c(ccc5)Cl)Cl

$$$$
VLA-UNK-f702bf1c-3_1
  -OEChem-01042202303D

 50 55  0     1  0  0  0  0  0999 V2000
    3.3444    2.6278   20.4409 C   0  0  0  0  0  0  0  0  0  0  0  0
    3.8974    1.9290   21.5048 C   0  0  0  0  0  0  0  0  0  0  0  0
    3.7877    2.4205   19.1658 C   0  0  0  0  0  0  0  0  0  0  0  0
    4.8986    1.0232   21.2985 C   0  0  0  0  0  0  0  0  0  0  0  0
   12.0781    0.0316   24.1532 C   0  0  0  0  0  0  0  0  0  0  0  0
   12.9147   -0.6032   23.2559 C   0  0  0  0  0  0  0  0  0  0  0  0
   11.0005   -1.4332   22.0435 C   0  0  0  0  0  0  0  0  0  0  0  0
    5.3288    1.2339   17.6062 C   0  0  0  0  0  0  0  0  0  0  0  0
    6.8449   -0.2893   18.3747 C   0  0  0  0  0  0  0  0  0  0  0  0
    9.7529   -5.8626   21.1176 C   0  0  0  0  0  0  0  0  0  0  0  0
    4.8238    1.4906   18.9051 C   0  0  0  0  0  0  0  0  0  0  0  0
    5.3995    0.7732   19.9944 C   0  0  0  0  0  0  0  0  0  0  0  0
   10.1421   -0.7766   22.9242 C   0  0  0  0  0  0  0  0  0  0  0  0
    6.4452   -0.1472   19.6975 C   0  0  0  0  0  0  0  0  0  0  0  0
   10.7056   -0.0626   23.9890 C   0  0  0  0  0  0  0  0  0  0  0  0
   12.3697   -1.3298   22.2224 C   0  0  0  0  0  0  0  0  0  0  0  0
    8.7203   -4.4117   22.2065 C   0  0  0  0  0  0  0  0  0  0  0  0
    8.2504    0.0168   21.4265 C   0  0  0  0  0  0  0  0  0  0  0  0
    6.9880   -1.9367   21.3575 C   0  0  0  0  0  0  0  0  0  0  0  0
    7.8737   -0.1194   23.8825 C   0  0  0  0  0  0  0  0  0  0  0  0
    8.6625    1.0133   24.4989 C   0  0  0  0  0  0  0  0  0  0  0  0
    8.6253   -0.7606   22.6923 C   0  0  2  0  0  0  0  0  0  0  0  0
    8.2670   -3.3056   23.1149 C   0  0  0  0  0  0  0  0  0  0  0  0
    6.3072    0.3768   17.3417 N   0  0  0  0  0  0  0  0  0  0  0  0
    9.9347   -4.8870   22.0555 N   0  0  0  0  0  0  0  0  0  0  0  0
    8.5024   -6.0209   20.6787 N   0  0  0  0  0  0  0  0  0  0  0  0
    7.8622   -5.0810   21.3907 N   0  0  0  0  0  0  0  0  0  0  0  0
    7.2305   -0.6898   20.7785 N   0  0  0  0  0  0  0  0  0  0  0  0
    8.0155   -2.1541   22.4325 N   0  0  0  0  0  0  0  0  0  0  0  0
    8.8030    1.0413   21.0842 O   0  0  0  0  0  0  0  0  0  0  0  0
    6.1158   -2.7517   21.1386 O   0  0  0  0  0  0  0  0  0  0  0  0
    9.9496    0.5589   24.9527 O   0  0  0  0  0  0  0  0  0  0  0  0
   13.4278   -2.1472   21.1115 Cl  0  0  0  0  0  0  0  0  0  0  0  0
    2.5443    3.3508   20.6368 H   0  0  0  0  0  0  0  0  0  0  0  0
    3.5189    2.1137   22.5166 H   0  0  0  0  0  0  0  0  0  0  0  0
    3.3421    2.9744   18.3363 H   0  0  0  0  0  0  0  0  0  0  0  0
    5.3131    0.4893   22.1569 H   0  0  0  0  0  0  0  0  0  0  0  0
   12.5017    0.6065   24.9715 H   0  0  0  0  0  0  0  0  0  0  0  0
   13.9924   -0.5157   23.3773 H   0  0  0  0  0  0  0  0  0  0  0  0
   10.6031   -2.0252   21.2295 H   0  0  0  0  0  0  0  0  0  0  0  0
    4.9151    1.7511   16.7471 H   0  0  0  0  0  0  0  0  0  0  0  0
    7.6455   -0.9765   18.1038 H   0  0  0  0  0  0  0  0  0  0  0  0
   10.5571   -6.4776   20.7421 H   0  0  0  0  0  0  0  0  0  0  0  0
    7.7144   -0.8754   24.6692 H   0  0  0  0  0  0  0  0  0  0  0  0
    6.8760    0.2356   23.5741 H   0  0  0  0  0  0  0  0  0  0  0  0
    8.8025    1.8559   23.8153 H   0  0  0  0  0  0  0  0  0  0  0  0
    8.1356    1.3957   25.3777 H   0  0  0  0  0  0  0  0  0  0  0  0
    7.3470   -3.5881   23.6380 H   0  0  0  0  0  0  0  0  0  0  0  0
    9.0220   -3.0897   23.8782 H   0  0  0  0  0  0  0  0  0  0  0  0
    6.8637   -4.9607   21.2667 H   0  0  0  0  0  0  0  0  0  0  0  0
  1  2  2  0  0  0  0
  1  3  1  0  0  0  0
  2  4  1  0  0  0  0
  3 11  2  0  0  0  0
  4 12  2  0  0  0  0
  5  6  2  0  0  0  0
  5 15  1  0  0  0  0
  6 16  1  0  0  0  0
  7 13  1  0  0  0  0
  7 16  2  0  0  0  0
  8 11  1  0  0  0  0
  8 24  2  0  0  0  0
  9 14  2  0  0  0  0
  9 24  1  0  0  0  0
 10 25  1  0  0  0  0
 10 26  2  0  0  0  0
 11 12  1  0  0  0  0
 12 14  1  0  0  0  0
 13 15  2  0  0  0  0
 13 22  1  6  0  0  0
 14 28  1  0  0  0  0
 15 32  1  0  0  0  0
 16 33  1  0  0  0  0
 17 23  1  0  0  0  0
 17 25  2  0  0  0  0
 17 27  1  0  0  0  0
 18 22  1  1  0  0  0
 18 28  1  0  0  0  0
 18 30  2  0  0  0  0
 19 28  1  0  0  0  0
 19 29  1  0  0  0  0
 19 31  2  0  0  0  0
 20 21  1  0  0  0  0
 20 22  1  1  0  0  0
 21 32  1  0  0  0  0
 22 29  1  6  0  0  0
 23 29  1  0  0  0  0
 26 27  1  0  0  0  0
  1 34  1  0  0  0  0
  2 35  1  0  0  0  0
  3 36  1  0  0  0  0
  4 37  1  0  0  0  0
  5 38  1  0  0  0  0
  6 39  1  0  0  0  0
  7 40  1  0  0  0  0
  8 41  1  0  0  0  0
  9 42  1  0  0  0  0
 10 43  1  0  0  0  0
 20 44  1  0  0  0  0
 20 45  1  0  0  0  0
 21 46  1  0  0  0  0
 21 47  1  0  0  0  0
 23 48  1  0  0  0  0
 23 49  1  0  0  0  0
 27 50  1  0  0  0  0
M  END
> <scaffold>
chromane-5spiro-isoquinoline

> <compound>
VLA-UNK-f702bf1c-3

> <compound_smiles>
c1ccc2c(c1)cncc2N3C(=O)[C@@]4(CCOc5c4cc(cc5)Cl)N(C3=O)Cc6nc[nH]n6

> <enantiomer_smiles>
c1ccc2c(c1)cncc2N3C(=O)[C@@]4(CCOc5c4cc(cc5)Cl)N(C3=O)Cc6nc[nH]n6

> <clash_score>
5.261588411454414

> <docking_score>
3.4028234663852886e+38

> <overlap_score>
1.0

> <MMFF_internal_energy>
67.46785883993934

> <docked_smiles>
c1ccc2c(c1)cncc2N3C(=O)[C@@]4(CCOc5c4cc(cc5)Cl)N(C3=O)Cc6[nH]ncn6

$$$$
EDG-MED-b1ef7fe3-2_1
  -OEChem-01042202303D

 53 57  0     1  0  0  0  0  0999 V2000
    3.7877    2.4205   19.1658 C   0  0  0  0  0  0  0  0  0  0  0  0
   12.0781    0.0316   24.1532 C   0  0  0  0  0  0  0  0  0  0  0  0
    3.3444    2.6278   20.4409 C   0  0  0  0  0  0  0  0  0  0  0  0
   12.9147   -0.6032   23.2559 C   0  0  0  0  0  0  0  0  0  0  0  0
    4.8986    1.0232   21.2985 C   0  0  0  0  0  0  0  0  0  0  0  0
   11.0005   -1.4332   22.0435 C   0  0  0  0  0  0  0  0  0  0  0  0
    5.3288    1.2339   17.6062 C   0  0  0  0  0  0  0  0  0  0  0  0
    6.8449   -0.2893   18.3747 C   0  0  0  0  0  0  0  0  0  0  0  0
    4.8238    1.4906   18.9051 C   0  0  0  0  0  0  0  0  0  0  0  0
    5.3995    0.7732   19.9944 C   0  0  0  0  0  0  0  0  0  0  0  0
   10.7056   -0.0626   23.9890 C   0  0  0  0  0  0  0  0  0  0  0  0
   10.1421   -0.7766   22.9242 C   0  0  0  0  0  0  0  0  0  0  0  0
    6.4452   -0.1472   19.6975 C   0  0  0  0  0  0  0  0  0  0  0  0
    3.8974    1.9290   21.5048 C   0  0  0  0  0  0  0  0  0  0  0  0
   12.3697   -1.3298   22.2224 C   0  0  0  0  0  0  0  0  0  0  0  0
    9.9496    0.5589   24.9527 C   0  0  0  0  0  0  0  0  0  0  0  0
    8.2504    0.0168   21.4265 C   0  0  0  0  0  0  0  0  0  0  0  0
    7.2900    2.1445   26.0369 C   0  0  0  0  0  0  0  0  0  0  0  0
    8.0155   -2.1541   22.4325 C   0  0  0  0  0  0  0  0  0  0  0  0
    6.9880   -1.9367   21.3575 C   0  0  0  0  0  0  0  0  0  0  0  0
    7.8737   -0.1194   23.8825 C   0  0  0  0  0  0  0  0  0  0  0  0
    8.6253   -0.7606   22.6923 C   0  0  3  0  0  0  0  0  0  0  0  0
    6.5711    3.5767   27.9463 C   0  0  0  0  0  0  0  0  0  0  0  0
    8.0937    2.2235   24.7641 C   0  0  0  0  0  0  0  0  0  0  0  0
    6.3072    0.3768   17.3417 N   0  0  0  0  0  0  0  0  0  0  0  0
    7.2305   -0.6898   20.7785 N   0  0  0  0  0  0  0  0  0  0  0  0
    8.6625    1.0133   24.4989 N   0  0  0  0  0  0  0  0  0  0  0  0
    7.2701    3.3635   26.6994 N   0  0  0  0  0  0  0  0  0  0  0  0
   10.3233    0.7301   26.1084 O   0  0  0  0  0  0  0  0  0  0  0  0
    8.8205    1.0412   21.0776 O   0  0  0  0  0  0  0  0  0  0  0  0
    6.7292    1.1210   26.4195 O   0  0  0  0  0  0  0  0  0  0  0  0
    3.4330    2.1555   22.7513 F   0  0  0  0  0  0  0  0  0  0  0  0
   13.4288   -2.1465   21.1124 Cl  0  0  0  0  0  0  0  0  0  0  0  0
    3.3411    2.9735   18.3363 H   0  0  0  0  0  0  0  0  0  0  0  0
   12.5188    0.5961   24.9710 H   0  0  0  0  0  0  0  0  0  0  0  0
    2.5441    3.3506   20.6360 H   0  0  0  0  0  0  0  0  0  0  0  0
   13.9920   -0.5226   23.3817 H   0  0  0  0  0  0  0  0  0  0  0  0
    5.3117    0.4882   22.1567 H   0  0  0  0  0  0  0  0  0  0  0  0
   10.6143   -2.0253   21.2266 H   0  0  0  0  0  0  0  0  0  0  0  0
    4.9147    1.7515   16.7472 H   0  0  0  0  0  0  0  0  0  0  0  0
    7.6456   -0.9763   18.1039 H   0  0  0  0  0  0  0  0  0  0  0  0
    7.5128   -2.5277   23.3386 H   0  0  0  0  0  0  0  0  0  0  0  0
    8.7593   -2.9102   22.1430 H   0  0  0  0  0  0  0  0  0  0  0  0
    7.0602   -2.7255   20.5716 H   0  0  0  0  0  0  0  0  0  0  0  0
    5.9526   -1.9964   21.7706 H   0  0  0  0  0  0  0  0  0  0  0  0
    6.9217    0.3182   23.5732 H   0  0  0  0  0  0  0  0  0  0  0  0
    7.6678   -0.8543   24.6617 H   0  0  0  0  0  0  0  0  0  0  0  0
    5.5409    3.9020   27.7387 H   0  0  0  0  0  0  0  0  0  0  0  0
    6.5506    2.6385   28.5201 H   0  0  0  0  0  0  0  0  0  0  0  0
    7.0898    4.3520   28.5293 H   0  0  0  0  0  0  0  0  0  0  0  0
    7.4419    2.5111   23.9339 H   0  0  0  0  0  0  0  0  0  0  0  0
    8.8897    2.9659   24.8736 H   0  0  0  0  0  0  0  0  0  0  0  0
    7.7718    4.1449   26.2876 H   0  0  0  0  0  0  0  0  0  0  0  0
  1  3  2  0  0  0  0
  1  9  1  0  0  0  0
  2  4  2  0  0  0  0
  2 11  1  0  0  0  0
  3 14  1  0  0  0  0
  4 15  1  0  0  0  0
  5 10  1  0  0  0  0
  5 14  2  0  0  0  0
  6 12  1  0  0  0  0
  6 15  2  0  0  0  0
  7  9  2  0  0  0  0
  7 25  1  0  0  0  0
  8 13  1  0  0  0  0
  8 25  2  0  0  0  0
  9 10  1  0  0  0  0
 10 13  2  0  0  0  0
 11 12  2  0  0  0  0
 11 16  1  0  0  0  0
 12 22  1  0  0  0  0
 13 26  1  0  0  0  0
 14 32  1  0  0  0  0
 15 33  1  0  0  0  0
 16 27  1  0  0  0  0
 16 29  2  0  0  0  0
 17 22  1  0  0  0  0
 17 26  1  0  0  0  0
 17 30  2  0  0  0  0
 18 24  1  0  0  0  0
 18 28  1  0  0  0  0
 18 31  2  0  0  0  0
 19 20  1  0  0  0  0
 19 22  1  0  0  0  0
 20 26  1  0  0  0  0
 21 22  1  0  0  0  0
 21 27  1  0  0  0  0
 23 28  1  0  0  0  0
 24 27  1  0  0  0  0
  1 34  1  0  0  0  0
  2 35  1  0  0  0  0
  3 36  1  0  0  0  0
  4 37  1  0  0  0  0
  5 38  1  0  0  0  0
  6 39  1  0  0  0  0
  7 40  1  0  0  0  0
  8 41  1  0  0  0  0
 19 42  1  0  0  0  0
 19 43  1  0  0  0  0
 20 44  1  0  0  0  0
 20 45  1  0  0  0  0
 21 46  1  0  0  0  0
 21 47  1  0  0  0  0
 23 48  1  0  0  0  0
 23 49  1  0  0  0  0
 23 50  1  0  0  0  0
 24 51  1  0  0  0  0
 24 52  1  0  0  0  0
 28 53  1  0  0  0  0
M  END
> <scaffold>
tetrahydroisoquinoline-5spiro-isoquinoline

> <compound>
EDG-MED-b1ef7fe3-2

> <compound_smiles>
CNC(=O)CN1CC2(CCN(C2=O)c3cncc4c3cc(cc4)F)c5cc(ccc5C1=O)Cl

> <enantiomer_smiles>
CNC(=O)CN1C[C@]2(CCN(C2=O)c3cncc4c3cc(cc4)F)c5cc(ccc5C1=O)Cl

> <clash_score>
0

> <docking_score>
3.4028234663852886e+38

> <overlap_score>
1.0

> <MMFF_internal_energy>
151.8572863195321

> <docked_smiles>
CNC(=O)CN1C[C@]2(CCN(C2=O)c3cncc4c3cc(cc4)F)c5cc(ccc5C1=O)Cl

$$$$
MAT-POS-c7726e07-6_1
  -OEChem-01042202303D

 55 59  0     1  0  0  0  0  0999 V2000
    3.3444    2.6278   20.4409 C   0  0  0  0  0  0  0  0  0  0  0  0
    3.8974    1.9290   21.5048 C   0  0  0  0  0  0  0  0  0  0  0  0
    3.7877    2.4205   19.1658 C   0  0  0  0  0  0  0  0  0  0  0  0
    4.8986    1.0232   21.2985 C   0  0  0  0  0  0  0  0  0  0  0  0
   12.0781    0.0316   24.1532 C   0  0  0  0  0  0  0  0  0  0  0  0
   12.9147   -0.6032   23.2559 C   0  0  0  0  0  0  0  0  0  0  0  0
   11.0005   -1.4332   22.0435 C   0  0  0  0  0  0  0  0  0  0  0  0
    5.3288    1.2339   17.6062 C   0  0  0  0  0  0  0  0  0  0  0  0
    6.8449   -0.2893   18.3747 C   0  0  0  0  0  0  0  0  0  0  0  0
    4.8238    1.4906   18.9051 C   0  0  0  0  0  0  0  0  0  0  0  0
    5.3995    0.7732   19.9944 C   0  0  0  0  0  0  0  0  0  0  0  0
   10.7056   -0.0626   23.9890 C   0  0  0  0  0  0  0  0  0  0  0  0
   10.1421   -0.7766   22.9242 C   0  0  0  0  0  0  0  0  0  0  0  0
    6.4452   -0.1472   19.6975 C   0  0  0  0  0  0  0  0  0  0  0  0
   12.3697   -1.3298   22.2224 C   0  0  0  0  0  0  0  0  0  0  0  0
    8.2504    0.0168   21.4265 C   0  0  0  0  0  0  0  0  0  0  0  0
    6.7850    2.6041   25.0047 C   0  0  0  0  0  0  0  0  0  0  0  0
    9.9496    0.5589   24.9527 C   0  0  0  0  0  0  0  0  0  0  0  0
    8.0155   -2.1541   22.4325 C   0  0  0  0  0  0  0  0  0  0  0  0
    6.9880   -1.9367   21.3575 C   0  0  0  0  0  0  0  0  0  0  0  0
    7.8737   -0.1194   23.8825 C   0  0  0  0  0  0  0  0  0  0  0  0
    8.6253   -0.7606   22.6923 C   0  0  1  0  0  0  0  0  0  0  0  0
    4.5270    3.4782   25.5291 C   0  0  0  0  0  0  0  0  0  0  0  0
    7.8612    1.7144   25.5743 C   0  0  0  0  0  0  0  0  0  0  0  0
    6.3072    0.3768   17.3417 N   0  0  0  0  0  0  0  0  0  0  0  0
    7.2305   -0.6898   20.7785 N   0  0  0  0  0  0  0  0  0  0  0  0
    5.6894    2.6850   25.8510 N   0  0  0  0  0  0  0  0  0  0  0  0
    8.6625    1.0133   24.4989 N   0  3  3  0  0  0  0  0  0  0  0  0
    8.8307    1.0396   21.0789 O   0  0  0  0  0  0  0  0  0  0  0  0
    6.8869    3.1779   23.9236 O   0  0  0  0  0  0  0  0  0  0  0  0
   13.4286   -2.1403   21.1072 Cl  0  0  0  0  0  0  0  0  0  0  0  0
    2.5443    3.3508   20.6368 H   0  0  0  0  0  0  0  0  0  0  0  0
    3.5189    2.1137   22.5166 H   0  0  0  0  0  0  0  0  0  0  0  0
    3.3421    2.9744   18.3363 H   0  0  0  0  0  0  0  0  0  0  0  0
    5.3131    0.4893   22.1569 H   0  0  0  0  0  0  0  0  0  0  0  0
   12.5040    0.5973   24.9741 H   0  0  0  0  0  0  0  0  0  0  0  0
   13.9926   -0.5176   23.3780 H   0  0  0  0  0  0  0  0  0  0  0  0
   10.6057   -2.0168   21.2239 H   0  0  0  0  0  0  0  0  0  0  0  0
    4.9151    1.7511   16.7471 H   0  0  0  0  0  0  0  0  0  0  0  0
    7.6455   -0.9765   18.1038 H   0  0  0  0  0  0  0  0  0  0  0  0
    9.7630   -0.1207   25.8244 H   0  0  0  0  0  0  0  0  0  0  0  0
   10.4585    1.4662   25.3691 H   0  0  0  0  0  0  0  0  0  0  0  0
    7.5159   -2.5477   23.3319 H   0  0  0  0  0  0  0  0  0  0  0  0
    8.7613   -2.9061   22.1409 H   0  0  0  0  0  0  0  0  0  0  0  0
    7.0594   -2.7244   20.5709 H   0  0  0  0  0  0  0  0  0  0  0  0
    5.9531   -1.9957   21.7710 H   0  0  0  0  0  0  0  0  0  0  0  0
    6.8972    0.2930   23.5750 H   0  0  0  0  0  0  0  0  0  0  0  0
    7.6778   -0.8486   24.6901 H   0  0  0  0  0  0  0  0  0  0  0  0
    4.6459    4.4896   25.9451 H   0  0  0  0  0  0  0  0  0  0  0  0
    4.4179    3.5418   24.4364 H   0  0  0  0  0  0  0  0  0  0  0  0
    3.6312    3.0075   25.9603 H   0  0  0  0  0  0  0  0  0  0  0  0
    7.4204    0.9331   26.1997 H   0  0  0  0  0  0  0  0  0  0  0  0
    8.5777    2.3054   26.1514 H   0  0  0  0  0  0  0  0  0  0  0  0
    5.6843    2.1547   26.7176 H   0  0  0  0  0  0  0  0  0  0  0  0
    8.7953    1.7233   23.7550 H   0  0  0  0  0  0  0  0  0  0  0  0
  1  2  2  0  0  0  0
  1  3  1  0  0  0  0
  2  4  1  0  0  0  0
  3 10  2  0  0  0  0
  4 11  2  0  0  0  0
  5  6  2  0  0  0  0
  5 12  1  0  0  0  0
  6 15  1  0  0  0  0
  7 13  1  0  0  0  0
  7 15  2  0  0  0  0
  8 10  1  0  0  0  0
  8 25  2  0  0  0  0
  9 14  2  0  0  0  0
  9 25  1  0  0  0  0
 10 11  1  0  0  0  0
 11 14  1  0  0  0  0
 12 13  2  0  0  0  0
 12 18  1  0  0  0  0
 13 22  1  1  0  0  0
 14 26  1  0  0  0  0
 15 31  1  0  0  0  0
 16 22  1  6  0  0  0
 16 26  1  0  0  0  0
 16 29  2  0  0  0  0
 17 24  1  0  0  0  0
 17 27  1  0  0  0  0
 17 30  2  0  0  0  0
 18 28  1  0  0  0  0
 19 20  1  0  0  0  0
 19 22  1  6  0  0  0
 20 26  1  0  0  0  0
 21 22  1  1  0  0  0
 21 28  1  0  0  0  0
 23 27  1  0  0  0  0
 24 28  1  0  0  0  0
  1 32  1  0  0  0  0
  2 33  1  0  0  0  0
  3 34  1  0  0  0  0
  4 35  1  0  0  0  0
  5 36  1  0  0  0  0
  6 37  1  0  0  0  0
  7 38  1  0  0  0  0
  8 39  1  0  0  0  0
  9 40  1  0  0  0  0
 18 41  1  0  0  0  0
 18 42  1  0  0  0  0
 19 43  1  0  0  0  0
 19 44  1  0  0  0  0
 20 45  1  0  0  0  0
 20 46  1  0  0  0  0
 21 47  1  0  0  0  0
 21 48  1  0  0  0  0
 23 49  1  0  0  0  0
 23 50  1  0  0  0  0
 23 51  1  0  0  0  0
 24 52  1  0  0  0  0
 24 53  1  0  0  0  0
 27 54  1  0  0  0  0
 28 55  1  0  0  0  0
M  CHG  1  28   1
M  END
> <scaffold>
tetrahydroisoquinoline-5spiro-isoquinoline

> <compound>
MAT-POS-c7726e07-6

> <compound_smiles>
CNC(=O)CN1Cc2ccc(cc2[C@@]3(C1)CCN(C3=O)c4cncc5c4cccc5)Cl

> <enantiomer_smiles>
CNC(=O)C[N@]1Cc2ccc(cc2[C@@]3(C1)CCN(C3=O)c4cncc5c4cccc5)Cl

> <clash_score>
0

> <docking_score>
3.4028234663852886e+38

> <overlap_score>
0.9768840670585632

> <MMFF_internal_energy>
157.56368759159636

> <docked_smiles>
CNC(=O)C[N@H+]1Cc2ccc(cc2[C@@]3(C1)CCN(C3=O)c4cncc5c4cccc5)Cl

$$$$
LUO-POS-868e8996-7_1
  -OEChem-01042202303D

 52 56  0     1  0  0  0  0  0999 V2000
    3.3444    2.6278   20.4409 C   0  0  0  0  0  0  0  0  0  0  0  0
    3.8974    1.9290   21.5048 C   0  0  0  0  0  0  0  0  0  0  0  0
    3.7877    2.4205   19.1658 C   0  0  0  0  0  0  0  0  0  0  0  0
    4.8986    1.0232   21.2985 C   0  0  0  0  0  0  0  0  0  0  0  0
   12.0781    0.0316   24.1532 C   0  0  0  0  0  0  0  0  0  0  0  0
   12.9147   -0.6032   23.2559 C   0  0  0  0  0  0  0  0  0  0  0  0
   11.0005   -1.4332   22.0435 C   0  0  0  0  0  0  0  0  0  0  0  0
    5.3288    1.2339   17.6062 C   0  0  0  0  0  0  0  0  0  0  0  0
    6.8449   -0.2893   18.3747 C   0  0  0  0  0  0  0  0  0  0  0  0
    4.8238    1.4906   18.9051 C   0  0  0  0  0  0  0  0  0  0  0  0
    5.3995    0.7732   19.9944 C   0  0  0  0  0  0  0  0  0  0  0  0
   10.7056   -0.0626   23.9890 C   0  0  0  0  0  0  0  0  0  0  0  0
   10.1421   -0.7766   22.9242 C   0  0  0  0  0  0  0  0  0  0  0  0
    6.4452   -0.1472   19.6975 C   0  0  0  0  0  0  0  0  0  0  0  0
   12.3697   -1.3298   22.2224 C   0  0  0  0  0  0  0  0  0  0  0  0
    9.9496    0.5589   24.9527 C   0  0  0  0  0  0  0  0  0  0  0  0
    6.9880   -1.9367   21.3575 C   0  0  0  0  0  0  0  0  0  0  0  0
    8.2504    0.0168   21.4265 C   0  0  0  0  0  0  0  0  0  0  0  0
    7.2621    2.1070   26.0495 C   0  0  0  0  0  0  0  0  0  0  0  0
    8.0155   -2.1541   22.4325 C   0  0  0  0  0  0  0  0  0  0  0  0
    7.8737   -0.1194   23.8825 C   0  0  0  0  0  0  0  0  0  0  0  0
    8.6253   -0.7606   22.6923 C   0  0  2  0  0  0  0  0  0  0  0  0
    6.4986    3.5024   27.9688 C   0  0  0  0  0  0  0  0  0  0  0  0
    8.0823    2.2144   24.7894 C   0  0  0  0  0  0  0  0  0  0  0  0
    6.3072    0.3768   17.3417 N   0  0  0  0  0  0  0  0  0  0  0  0
    7.2305   -0.6898   20.7785 N   0  0  0  0  0  0  0  0  0  0  0  0
    8.6625    1.0133   24.4989 N   0  0  0  0  0  0  0  0  0  0  0  0
    7.2174    3.3160   26.7289 N   0  0  0  0  0  0  0  0  0  0  0  0
   10.3273    0.7360   26.1061 O   0  0  0  0  0  0  0  0  0  0  0  0
    6.1283   -2.7644   21.0979 O   0  0  0  0  0  0  0  0  0  0  0  0
    8.7920    1.0603   21.1002 O   0  0  0  0  0  0  0  0  0  0  0  0
    6.7094    1.0711   26.4098 O   0  0  0  0  0  0  0  0  0  0  0  0
   13.4283   -2.1312   21.1004 Cl  0  0  0  0  0  0  0  0  0  0  0  0
    2.5443    3.3508   20.6368 H   0  0  0  0  0  0  0  0  0  0  0  0
    3.5189    2.1137   22.5166 H   0  0  0  0  0  0  0  0  0  0  0  0
    3.3421    2.9744   18.3363 H   0  0  0  0  0  0  0  0  0  0  0  0
    5.3131    0.4893   22.1569 H   0  0  0  0  0  0  0  0  0  0  0  0
   12.5198    0.5961   24.9699 H   0  0  0  0  0  0  0  0  0  0  0  0
   13.9920   -0.5097   23.3723 H   0  0  0  0  0  0  0  0  0  0  0  0
   10.6069   -2.0138   21.2208 H   0  0  0  0  0  0  0  0  0  0  0  0
    4.9151    1.7511   16.7471 H   0  0  0  0  0  0  0  0  0  0  0  0
    7.6455   -0.9765   18.1038 H   0  0  0  0  0  0  0  0  0  0  0  0
    7.4972   -2.5593   23.3105 H   0  0  0  0  0  0  0  0  0  0  0  0
    8.7600   -2.8848   22.0982 H   0  0  0  0  0  0  0  0  0  0  0  0
    6.9062    0.2736   23.5772 H   0  0  0  0  0  0  0  0  0  0  0  0
    7.7145   -0.8339   24.6899 H   0  0  0  0  0  0  0  0  0  0  0  0
    5.4673    3.8175   27.7515 H   0  0  0  0  0  0  0  0  0  0  0  0
    6.4823    2.5559   28.5290 H   0  0  0  0  0  0  0  0  0  0  0  0
    6.9992    4.2758   28.5699 H   0  0  0  0  0  0  0  0  0  0  0  0
    7.4382    2.5056   23.9543 H   0  0  0  0  0  0  0  0  0  0  0  0
    8.8670    2.9652   24.9204 H   0  0  0  0  0  0  0  0  0  0  0  0
    7.7146    4.1095   26.3353 H   0  0  0  0  0  0  0  0  0  0  0  0
  1  2  2  0  0  0  0
  1  3  1  0  0  0  0
  2  4  1  0  0  0  0
  3 10  2  0  0  0  0
  4 11  2  0  0  0  0
  5  6  2  0  0  0  0
  5 12  1  0  0  0  0
  6 15  1  0  0  0  0
  7 13  1  0  0  0  0
  7 15  2  0  0  0  0
  8 10  1  0  0  0  0
  8 25  2  0  0  0  0
  9 14  2  0  0  0  0
  9 25  1  0  0  0  0
 10 11  1  0  0  0  0
 11 14  1  0  0  0  0
 12 13  2  0  0  0  0
 12 16  1  0  0  0  0
 13 22  1  6  0  0  0
 14 26  1  0  0  0  0
 15 33  1  0  0  0  0
 16 27  1  0  0  0  0
 16 29  2  0  0  0  0
 17 20  1  0  0  0  0
 17 26  1  0  0  0  0
 17 30  2  0  0  0  0
 18 22  1  6  0  0  0
 18 26  1  0  0  0  0
 18 31  2  0  0  0  0
 19 24  1  0  0  0  0
 19 28  1  0  0  0  0
 19 32  2  0  0  0  0
 20 22  1  1  0  0  0
 21 22  1  1  0  0  0
 21 27  1  0  0  0  0
 23 28  1  0  0  0  0
 24 27  1  0  0  0  0
  1 34  1  0  0  0  0
  2 35  1  0  0  0  0
  3 36  1  0  0  0  0
  4 37  1  0  0  0  0
  5 38  1  0  0  0  0
  6 39  1  0  0  0  0
  7 40  1  0  0  0  0
  8 41  1  0  0  0  0
  9 42  1  0  0  0  0
 20 43  1  0  0  0  0
 20 44  1  0  0  0  0
 21 45  1  0  0  0  0
 21 46  1  0  0  0  0
 23 47  1  0  0  0  0
 23 48  1  0  0  0  0
 23 49  1  0  0  0  0
 24 50  1  0  0  0  0
 24 51  1  0  0  0  0
 28 52  1  0  0  0  0
M  END
> <scaffold>
tetrahydroisoquinoline-5spiro-isoquinoline

> <compound>
LUO-POS-868e8996-7

> <compound_smiles>
CNC(=O)CN1C[C@@]2(CC(=O)N(C2=O)c3cncc4c3cccc4)c5cc(ccc5C1=O)Cl

> <enantiomer_smiles>
CNC(=O)CN1C[C@@]2(CC(=O)N(C2=O)c3cncc4c3cccc4)c5cc(ccc5C1=O)Cl

> <clash_score>
0

> <docking_score>
3.4028234663852886e+38

> <overlap_score>
1.0150593519210815

> <MMFF_internal_energy>
122.88919940691524

> <docked_smiles>
CNC(=O)CN1C[C@@]2(CC(=O)N(C2=O)c3cncc4c3cccc4)c5cc(ccc5C1=O)Cl

$$$$
EDG-MED-b1ef7fe3-4_1
  -OEChem-01042202303D

 53 57  0     1  0  0  0  0  0999 V2000
    4.8986    1.0232   21.2985 C   0  0  0  0  0  0  0  0  0  0  0  0
   12.0781    0.0316   24.1532 C   0  0  0  0  0  0  0  0  0  0  0  0
    3.8974    1.9290   21.5048 C   0  0  0  0  0  0  0  0  0  0  0  0
   12.9147   -0.6032   23.2559 C   0  0  0  0  0  0  0  0  0  0  0  0
    3.7877    2.4205   19.1658 C   0  0  0  0  0  0  0  0  0  0  0  0
   11.0005   -1.4332   22.0435 C   0  0  0  0  0  0  0  0  0  0  0  0
    5.3288    1.2339   17.6062 C   0  0  0  0  0  0  0  0  0  0  0  0
    6.8449   -0.2893   18.3747 C   0  0  0  0  0  0  0  0  0  0  0  0
    5.3995    0.7732   19.9944 C   0  0  0  0  0  0  0  0  0  0  0  0
    4.8238    1.4906   18.9051 C   0  0  0  0  0  0  0  0  0  0  0  0
   10.7056   -0.0626   23.9890 C   0  0  0  0  0  0  0  0  0  0  0  0
   10.1421   -0.7766   22.9242 C   0  0  0  0  0  0  0  0  0  0  0  0
    6.4452   -0.1472   19.6975 C   0  0  0  0  0  0  0  0  0  0  0  0
    3.3444    2.6278   20.4409 C   0  0  0  0  0  0  0  0  0  0  0  0
   12.3697   -1.3298   22.2224 C   0  0  0  0  0  0  0  0  0  0  0  0
    9.9496    0.5589   24.9527 C   0  0  0  0  0  0  0  0  0  0  0  0
    8.2504    0.0168   21.4265 C   0  0  0  0  0  0  0  0  0  0  0  0
    7.2900    2.1445   26.0369 C   0  0  0  0  0  0  0  0  0  0  0  0
    8.0155   -2.1541   22.4325 C   0  0  0  0  0  0  0  0  0  0  0  0
    6.9880   -1.9367   21.3575 C   0  0  0  0  0  0  0  0  0  0  0  0
    7.8737   -0.1194   23.8825 C   0  0  0  0  0  0  0  0  0  0  0  0
    8.6253   -0.7606   22.6923 C   0  0  3  0  0  0  0  0  0  0  0  0
    6.5711    3.5767   27.9463 C   0  0  0  0  0  0  0  0  0  0  0  0
    8.0937    2.2235   24.7641 C   0  0  0  0  0  0  0  0  0  0  0  0
    6.3072    0.3768   17.3417 N   0  0  0  0  0  0  0  0  0  0  0  0
    7.2305   -0.6898   20.7785 N   0  0  0  0  0  0  0  0  0  0  0  0
    8.6625    1.0133   24.4989 N   0  0  0  0  0  0  0  0  0  0  0  0
    7.2701    3.3635   26.6994 N   0  0  0  0  0  0  0  0  0  0  0  0
   10.3233    0.7301   26.1084 O   0  0  0  0  0  0  0  0  0  0  0  0
    8.8205    1.0412   21.0776 O   0  0  0  0  0  0  0  0  0  0  0  0
    6.7292    1.1210   26.4195 O   0  0  0  0  0  0  0  0  0  0  0  0
    2.0806    3.7708   20.7461 Cl  0  0  0  0  0  0  0  0  0  0  0  0
   13.4288   -2.1465   21.1124 Cl  0  0  0  0  0  0  0  0  0  0  0  0
    5.3130    0.4890   22.1566 H   0  0  0  0  0  0  0  0  0  0  0  0
   12.5188    0.5961   24.9710 H   0  0  0  0  0  0  0  0  0  0  0  0
    3.5294    2.1039   22.5231 H   0  0  0  0  0  0  0  0  0  0  0  0
   13.9920   -0.5226   23.3817 H   0  0  0  0  0  0  0  0  0  0  0  0
    3.3519    2.9678   18.3252 H   0  0  0  0  0  0  0  0  0  0  0  0
   10.6143   -2.0253   21.2266 H   0  0  0  0  0  0  0  0  0  0  0  0
    4.9149    1.7517   16.7475 H   0  0  0  0  0  0  0  0  0  0  0  0
    7.6461   -0.9760   18.1040 H   0  0  0  0  0  0  0  0  0  0  0  0
    7.5128   -2.5277   23.3386 H   0  0  0  0  0  0  0  0  0  0  0  0
    8.7593   -2.9102   22.1430 H   0  0  0  0  0  0  0  0  0  0  0  0
    7.0602   -2.7255   20.5716 H   0  0  0  0  0  0  0  0  0  0  0  0
    5.9526   -1.9964   21.7706 H   0  0  0  0  0  0  0  0  0  0  0  0
    6.9217    0.3182   23.5732 H   0  0  0  0  0  0  0  0  0  0  0  0
    7.6678   -0.8543   24.6617 H   0  0  0  0  0  0  0  0  0  0  0  0
    5.5409    3.9020   27.7387 H   0  0  0  0  0  0  0  0  0  0  0  0
    6.5506    2.6385   28.5201 H   0  0  0  0  0  0  0  0  0  0  0  0
    7.0898    4.3520   28.5293 H   0  0  0  0  0  0  0  0  0  0  0  0
    7.4419    2.5111   23.9339 H   0  0  0  0  0  0  0  0  0  0  0  0
    8.8897    2.9659   24.8736 H   0  0  0  0  0  0  0  0  0  0  0  0
    7.7718    4.1449   26.2876 H   0  0  0  0  0  0  0  0  0  0  0  0
  1  3  2  0  0  0  0
  1  9  1  0  0  0  0
  2  4  2  0  0  0  0
  2 11  1  0  0  0  0
  3 14  1  0  0  0  0
  4 15  1  0  0  0  0
  5 10  1  0  0  0  0
  5 14  2  0  0  0  0
  6 12  1  0  0  0  0
  6 15  2  0  0  0  0
  7 10  2  0  0  0  0
  7 25  1  0  0  0  0
  8 13  1  0  0  0  0
  8 25  2  0  0  0  0
  9 10  1  0  0  0  0
  9 13  2  0  0  0  0
 11 12  2  0  0  0  0
 11 16  1  0  0  0  0
 12 22  1  0  0  0  0
 13 26  1  0  0  0  0
 14 32  1  0  0  0  0
 15 33  1  0  0  0  0
 16 27  1  0  0  0  0
 16 29  2  0  0  0  0
 17 22  1  0  0  0  0
 17 26  1  0  0  0  0
 17 30  2  0  0  0  0
 18 24  1  0  0  0  0
 18 28  1  0  0  0  0
 18 31  2  0  0  0  0
 19 20  1  0  0  0  0
 19 22  1  0  0  0  0
 20 26  1  0  0  0  0
 21 22  1  0  0  0  0
 21 27  1  0  0  0  0
 23 28  1  0  0  0  0
 24 27  1  0  0  0  0
  1 34  1  0  0  0  0
  2 35  1  0  0  0  0
  3 36  1  0  0  0  0
  4 37  1  0  0  0  0
  5 38  1  0  0  0  0
  6 39  1  0  0  0  0
  7 40  1  0  0  0  0
  8 41  1  0  0  0  0
 19 42  1  0  0  0  0
 19 43  1  0  0  0  0
 20 44  1  0  0  0  0
 20 45  1  0  0  0  0
 21 46  1  0  0  0  0
 21 47  1  0  0  0  0
 23 48  1  0  0  0  0
 23 49  1  0  0  0  0
 23 50  1  0  0  0  0
 24 51  1  0  0  0  0
 24 52  1  0  0  0  0
 28 53  1  0  0  0  0
M  END
> <scaffold>
tetrahydroisoquinoline-5spiro-isoquinoline

> <compound>
EDG-MED-b1ef7fe3-4

> <compound_smiles>
CNC(=O)CN1CC2(CCN(C2=O)c3cncc4c3ccc(c4)Cl)c5cc(ccc5C1=O)Cl

> <enantiomer_smiles>
CNC(=O)CN1C[C@]2(CCN(C2=O)c3cncc4c3ccc(c4)Cl)c5cc(ccc5C1=O)Cl

> <clash_score>
0

> <docking_score>
3.4028234663852886e+38

> <overlap_score>
1.0

> <MMFF_internal_energy>
153.2029497025049

> <docked_smiles>
CNC(=O)CN1C[C@]2(CCN(C2=O)c3cncc4c3ccc(c4)Cl)c5cc(ccc5C1=O)Cl

$$$$
MAT-POS-853c0ffa-1_1
  -OEChem-01042202303D

 53 57  0     1  0  0  0  0  0999 V2000
    3.3444    2.6278   20.4409 C   0  0  0  0  0  0  0  0  0  0  0  0
    3.7877    2.4205   19.1658 C   0  0  0  0  0  0  0  0  0  0  0  0
   12.0781    0.0316   24.1532 C   0  0  0  0  0  0  0  0  0  0  0  0
    3.8974    1.9290   21.5048 C   0  0  0  0  0  0  0  0  0  0  0  0
   12.9147   -0.6032   23.2559 C   0  0  0  0  0  0  0  0  0  0  0  0
   11.0005   -1.4332   22.0435 C   0  0  0  0  0  0  0  0  0  0  0  0
    5.3288    1.2339   17.6062 C   0  0  0  0  0  0  0  0  0  0  0  0
    6.8449   -0.2893   18.3747 C   0  0  0  0  0  0  0  0  0  0  0  0
    4.8238    1.4906   18.9051 C   0  0  0  0  0  0  0  0  0  0  0  0
    5.3995    0.7732   19.9944 C   0  0  0  0  0  0  0  0  0  0  0  0
   10.7056   -0.0626   23.9890 C   0  0  0  0  0  0  0  0  0  0  0  0
   10.1421   -0.7766   22.9242 C   0  0  0  0  0  0  0  0  0  0  0  0
    6.4452   -0.1472   19.6975 C   0  0  0  0  0  0  0  0  0  0  0  0
   12.3697   -1.3298   22.2224 C   0  0  0  0  0  0  0  0  0  0  0  0
    4.8986    1.0232   21.2985 C   0  0  0  0  0  0  0  0  0  0  0  0
    9.9496    0.5589   24.9527 C   0  0  0  0  0  0  0  0  0  0  0  0
    8.2504    0.0168   21.4265 C   0  0  0  0  0  0  0  0  0  0  0  0
    7.2900    2.1445   26.0369 C   0  0  0  0  0  0  0  0  0  0  0  0
    8.0155   -2.1541   22.4325 C   0  0  0  0  0  0  0  0  0  0  0  0
    6.9880   -1.9367   21.3575 C   0  0  0  0  0  0  0  0  0  0  0  0
    7.8737   -0.1194   23.8825 C   0  0  0  0  0  0  0  0  0  0  0  0
    8.6253   -0.7606   22.6923 C   0  0  3  0  0  0  0  0  0  0  0  0
    6.5711    3.5767   27.9463 C   0  0  0  0  0  0  0  0  0  0  0  0
    8.0937    2.2235   24.7641 C   0  0  0  0  0  0  0  0  0  0  0  0
    6.3072    0.3768   17.3417 N   0  0  0  0  0  0  0  0  0  0  0  0
    7.2305   -0.6898   20.7785 N   0  0  0  0  0  0  0  0  0  0  0  0
    8.6625    1.0133   24.4989 N   0  0  0  0  0  0  0  0  0  0  0  0
    7.2701    3.3635   26.6994 N   0  0  0  0  0  0  0  0  0  0  0  0
   10.3233    0.7301   26.1084 O   0  0  0  0  0  0  0  0  0  0  0  0
    8.8205    1.0412   21.0776 O   0  0  0  0  0  0  0  0  0  0  0  0
    6.7292    1.1210   26.4195 O   0  0  0  0  0  0  0  0  0  0  0  0
   13.4288   -2.1465   21.1124 Cl  0  0  0  0  0  0  0  0  0  0  0  0
    5.4637    0.2451   22.7511 Cl  0  0  0  0  0  0  0  0  0  0  0  0
    2.5436    3.3504   20.6371 H   0  0  0  0  0  0  0  0  0  0  0  0
    3.3414    2.9737   18.3360 H   0  0  0  0  0  0  0  0  0  0  0  0
   12.5188    0.5961   24.9710 H   0  0  0  0  0  0  0  0  0  0  0  0
    3.5007    2.1328   22.5078 H   0  0  0  0  0  0  0  0  0  0  0  0
   13.9920   -0.5226   23.3817 H   0  0  0  0  0  0  0  0  0  0  0  0
   10.6143   -2.0253   21.2266 H   0  0  0  0  0  0  0  0  0  0  0  0
    4.9145    1.7510   16.7474 H   0  0  0  0  0  0  0  0  0  0  0  0
    7.6459   -0.9748   18.1001 H   0  0  0  0  0  0  0  0  0  0  0  0
    7.5128   -2.5277   23.3386 H   0  0  0  0  0  0  0  0  0  0  0  0
    8.7593   -2.9102   22.1430 H   0  0  0  0  0  0  0  0  0  0  0  0
    7.0602   -2.7255   20.5716 H   0  0  0  0  0  0  0  0  0  0  0  0
    5.9526   -1.9964   21.7706 H   0  0  0  0  0  0  0  0  0  0  0  0
    6.9217    0.3182   23.5732 H   0  0  0  0  0  0  0  0  0  0  0  0
    7.6678   -0.8543   24.6617 H   0  0  0  0  0  0  0  0  0  0  0  0
    5.5409    3.9020   27.7387 H   0  0  0  0  0  0  0  0  0  0  0  0
    6.5506    2.6385   28.5201 H   0  0  0  0  0  0  0  0  0  0  0  0
    7.0898    4.3520   28.5293 H   0  0  0  0  0  0  0  0  0  0  0  0
    7.4419    2.5111   23.9339 H   0  0  0  0  0  0  0  0  0  0  0  0
    8.8897    2.9659   24.8736 H   0  0  0  0  0  0  0  0  0  0  0  0
    7.7718    4.1449   26.2876 H   0  0  0  0  0  0  0  0  0  0  0  0
  1  2  2  0  0  0  0
  1  4  1  0  0  0  0
  2  9  1  0  0  0  0
  3  5  2  0  0  0  0
  3 11  1  0  0  0  0
  4 15  2  0  0  0  0
  5 14  1  0  0  0  0
  6 12  1  0  0  0  0
  6 14  2  0  0  0  0
  7  9  2  0  0  0  0
  7 25  1  0  0  0  0
  8 13  1  0  0  0  0
  8 25  2  0  0  0  0
  9 10  1  0  0  0  0
 10 13  2  0  0  0  0
 10 15  1  0  0  0  0
 11 12  2  0  0  0  0
 11 16  1  0  0  0  0
 12 22  1  0  0  0  0
 13 26  1  0  0  0  0
 14 32  1  0  0  0  0
 15 33  1  0  0  0  0
 16 27  1  0  0  0  0
 16 29  2  0  0  0  0
 17 22  1  0  0  0  0
 17 26  1  0  0  0  0
 17 30  2  0  0  0  0
 18 24  1  0  0  0  0
 18 28  1  0  0  0  0
 18 31  2  0  0  0  0
 19 20  1  0  0  0  0
 19 22  1  0  0  0  0
 20 26  1  0  0  0  0
 21 22  1  0  0  0  0
 21 27  1  0  0  0  0
 23 28  1  0  0  0  0
 24 27  1  0  0  0  0
  1 34  1  0  0  0  0
  2 35  1  0  0  0  0
  3 36  1  0  0  0  0
  4 37  1  0  0  0  0
  5 38  1  0  0  0  0
  6 39  1  0  0  0  0
  7 40  1  0  0  0  0
  8 41  1  0  0  0  0
 19 42  1  0  0  0  0
 19 43  1  0  0  0  0
 20 44  1  0  0  0  0
 20 45  1  0  0  0  0
 21 46  1  0  0  0  0
 21 47  1  0  0  0  0
 23 48  1  0  0  0  0
 23 49  1  0  0  0  0
 23 50  1  0  0  0  0
 24 51  1  0  0  0  0
 24 52  1  0  0  0  0
 28 53  1  0  0  0  0
M  END
> <scaffold>
tetrahydroisoquinoline-5spiro-isoquinoline

> <compound>
MAT-POS-853c0ffa-1

> <compound_smiles>
CNC(=O)CN1CC2(CCN(C2=O)c3cncc4c3c(ccc4)Cl)c5cc(ccc5C1=O)Cl

> <enantiomer_smiles>
CNC(=O)CN1C[C@]2(CCN(C2=O)c3cncc4c3c(ccc4)Cl)c5cc(ccc5C1=O)Cl

> <clash_score>
0

> <docking_score>
3.4028234663852886e+38

> <overlap_score>
1.0

> <MMFF_internal_energy>
230.8942417569039

> <docked_smiles>
CNC(=O)CN1C[C@]2(CCN(C2=O)c3cncc4c3c(ccc4)Cl)c5cc(ccc5C1=O)Cl

$$$$
EDG-MED-b1ef7fe3-3_1
  -OEChem-01042202303D

 53 57  0     1  0  0  0  0  0999 V2000
    4.8986    1.0232   21.2985 C   0  0  0  0  0  0  0  0  0  0  0  0
   12.0781    0.0316   24.1532 C   0  0  0  0  0  0  0  0  0  0  0  0
    3.8974    1.9290   21.5048 C   0  0  0  0  0  0  0  0  0  0  0  0
   12.9147   -0.6032   23.2559 C   0  0  0  0  0  0  0  0  0  0  0  0
    3.7877    2.4205   19.1658 C   0  0  0  0  0  0  0  0  0  0  0  0
   11.0005   -1.4332   22.0435 C   0  0  0  0  0  0  0  0  0  0  0  0
    5.3288    1.2339   17.6062 C   0  0  0  0  0  0  0  0  0  0  0  0
    6.8449   -0.2893   18.3747 C   0  0  0  0  0  0  0  0  0  0  0  0
    5.3995    0.7732   19.9944 C   0  0  0  0  0  0  0  0  0  0  0  0
    4.8238    1.4906   18.9051 C   0  0  0  0  0  0  0  0  0  0  0  0
   10.7056   -0.0626   23.9890 C   0  0  0  0  0  0  0  0  0  0  0  0
   10.1421   -0.7766   22.9242 C   0  0  0  0  0  0  0  0  0  0  0  0
    6.4452   -0.1472   19.6975 C   0  0  0  0  0  0  0  0  0  0  0  0
    3.3444    2.6278   20.4409 C   0  0  0  0  0  0  0  0  0  0  0  0
   12.3697   -1.3298   22.2224 C   0  0  0  0  0  0  0  0  0  0  0  0
    9.9496    0.5589   24.9527 C   0  0  0  0  0  0  0  0  0  0  0  0
    8.2504    0.0168   21.4265 C   0  0  0  0  0  0  0  0  0  0  0  0
    7.2900    2.1445   26.0369 C   0  0  0  0  0  0  0  0  0  0  0  0
    8.0155   -2.1541   22.4325 C   0  0  0  0  0  0  0  0  0  0  0  0
    6.9880   -1.9367   21.3575 C   0  0  0  0  0  0  0  0  0  0  0  0
    7.8737   -0.1194   23.8825 C   0  0  0  0  0  0  0  0  0  0  0  0
    8.6253   -0.7606   22.6923 C   0  0  3  0  0  0  0  0  0  0  0  0
    6.5711    3.5767   27.9463 C   0  0  0  0  0  0  0  0  0  0  0  0
    8.0937    2.2235   24.7641 C   0  0  0  0  0  0  0  0  0  0  0  0
    6.3072    0.3768   17.3417 N   0  0  0  0  0  0  0  0  0  0  0  0
    7.2305   -0.6898   20.7785 N   0  0  0  0  0  0  0  0  0  0  0  0
    8.6625    1.0133   24.4989 N   0  0  0  0  0  0  0  0  0  0  0  0
    7.2701    3.3635   26.6994 N   0  0  0  0  0  0  0  0  0  0  0  0
   10.3233    0.7301   26.1084 O   0  0  0  0  0  0  0  0  0  0  0  0
    8.8205    1.0412   21.0776 O   0  0  0  0  0  0  0  0  0  0  0  0
    6.7292    1.1210   26.4195 O   0  0  0  0  0  0  0  0  0  0  0  0
    2.3589    3.5182   20.6799 F   0  0  0  0  0  0  0  0  0  0  0  0
   13.4288   -2.1465   21.1124 Cl  0  0  0  0  0  0  0  0  0  0  0  0
    5.3128    0.4885   22.1564 H   0  0  0  0  0  0  0  0  0  0  0  0
   12.5188    0.5961   24.9710 H   0  0  0  0  0  0  0  0  0  0  0  0
    3.5193    2.1137   22.5166 H   0  0  0  0  0  0  0  0  0  0  0  0
   13.9920   -0.5226   23.3817 H   0  0  0  0  0  0  0  0  0  0  0  0
    3.3425    2.9750   18.3365 H   0  0  0  0  0  0  0  0  0  0  0  0
   10.6143   -2.0253   21.2266 H   0  0  0  0  0  0  0  0  0  0  0  0
    4.9145    1.7513   16.7474 H   0  0  0  0  0  0  0  0  0  0  0  0
    7.6459   -0.9759   18.1039 H   0  0  0  0  0  0  0  0  0  0  0  0
    7.5128   -2.5277   23.3386 H   0  0  0  0  0  0  0  0  0  0  0  0
    8.7593   -2.9102   22.1430 H   0  0  0  0  0  0  0  0  0  0  0  0
    7.0602   -2.7255   20.5716 H   0  0  0  0  0  0  0  0  0  0  0  0
    5.9526   -1.9964   21.7706 H   0  0  0  0  0  0  0  0  0  0  0  0
    6.9217    0.3182   23.5732 H   0  0  0  0  0  0  0  0  0  0  0  0
    7.6678   -0.8543   24.6617 H   0  0  0  0  0  0  0  0  0  0  0  0
    5.5409    3.9020   27.7387 H   0  0  0  0  0  0  0  0  0  0  0  0
    6.5506    2.6385   28.5201 H   0  0  0  0  0  0  0  0  0  0  0  0
    7.0898    4.3520   28.5293 H   0  0  0  0  0  0  0  0  0  0  0  0
    7.4419    2.5111   23.9339 H   0  0  0  0  0  0  0  0  0  0  0  0
    8.8897    2.9659   24.8736 H   0  0  0  0  0  0  0  0  0  0  0  0
    7.7718    4.1449   26.2876 H   0  0  0  0  0  0  0  0  0  0  0  0
  1  3  2  0  0  0  0
  1  9  1  0  0  0  0
  2  4  2  0  0  0  0
  2 11  1  0  0  0  0
  3 14  1  0  0  0  0
  4 15  1  0  0  0  0
  5 10  1  0  0  0  0
  5 14  2  0  0  0  0
  6 12  1  0  0  0  0
  6 15  2  0  0  0  0
  7 10  2  0  0  0  0
  7 25  1  0  0  0  0
  8 13  1  0  0  0  0
  8 25  2  0  0  0  0
  9 10  1  0  0  0  0
  9 13  2  0  0  0  0
 11 12  2  0  0  0  0
 11 16  1  0  0  0  0
 12 22  1  0  0  0  0
 13 26  1  0  0  0  0
 14 32  1  0  0  0  0
 15 33  1  0  0  0  0
 16 27  1  0  0  0  0
 16 29  2  0  0  0  0
 17 22  1  0  0  0  0
 17 26  1  0  0  0  0
 17 30  2  0  0  0  0
 18 24  1  0  0  0  0
 18 28  1  0  0  0  0
 18 31  2  0  0  0  0
 19 20  1  0  0  0  0
 19 22  1  0  0  0  0
 20 26  1  0  0  0  0
 21 22  1  0  0  0  0
 21 27  1  0  0  0  0
 23 28  1  0  0  0  0
 24 27  1  0  0  0  0
  1 34  1  0  0  0  0
  2 35  1  0  0  0  0
  3 36  1  0  0  0  0
  4 37  1  0  0  0  0
  5 38  1  0  0  0  0
  6 39  1  0  0  0  0
  7 40  1  0  0  0  0
  8 41  1  0  0  0  0
 19 42  1  0  0  0  0
 19 43  1  0  0  0  0
 20 44  1  0  0  0  0
 20 45  1  0  0  0  0
 21 46  1  0  0  0  0
 21 47  1  0  0  0  0
 23 48  1  0  0  0  0
 23 49  1  0  0  0  0
 23 50  1  0  0  0  0
 24 51  1  0  0  0  0
 24 52  1  0  0  0  0
 28 53  1  0  0  0  0
M  END
> <scaffold>
tetrahydroisoquinoline-5spiro-isoquinoline

> <compound>
EDG-MED-b1ef7fe3-3

> <compound_smiles>
CNC(=O)CN1CC2(CCN(C2=O)c3cncc4c3ccc(c4)F)c5cc(ccc5C1=O)Cl

> <enantiomer_smiles>
CNC(=O)CN1C[C@]2(CCN(C2=O)c3cncc4c3ccc(c4)F)c5cc(ccc5C1=O)Cl

> <clash_score>
0

> <docking_score>
3.4028234663852886e+38

> <overlap_score>
1.0

> <MMFF_internal_energy>
151.64180623788215

> <docked_smiles>
CNC(=O)CN1C[C@]2(CCN(C2=O)c3cncc4c3ccc(c4)F)c5cc(ccc5C1=O)Cl

$$$$
ALP-POS-4483ae88-2_1
  -OEChem-01042202303D

 54 58  0     1  0  0  0  0  0999 V2000
    3.3444    2.6278   20.4409 C   0  0  0  0  0  0  0  0  0  0  0  0
    3.8974    1.9290   21.5048 C   0  0  0  0  0  0  0  0  0  0  0  0
    3.7877    2.4205   19.1658 C   0  0  0  0  0  0  0  0  0  0  0  0
    4.8986    1.0232   21.2985 C   0  0  0  0  0  0  0  0  0  0  0  0
   12.0781    0.0316   24.1532 C   0  0  0  0  0  0  0  0  0  0  0  0
   12.9147   -0.6032   23.2559 C   0  0  0  0  0  0  0  0  0  0  0  0
   11.0005   -1.4332   22.0435 C   0  0  0  0  0  0  0  0  0  0  0  0
    5.3288    1.2339   17.6062 C   0  0  0  0  0  0  0  0  0  0  0  0
    6.8449   -0.2893   18.3747 C   0  0  0  0  0  0  0  0  0  0  0  0
    4.8238    1.4906   18.9051 C   0  0  0  0  0  0  0  0  0  0  0  0
    5.3995    0.7732   19.9944 C   0  0  0  0  0  0  0  0  0  0  0  0
   10.1421   -0.7766   22.9242 C   0  0  0  0  0  0  0  0  0  0  0  0
    6.4452   -0.1472   19.6975 C   0  0  0  0  0  0  0  0  0  0  0  0
   10.7056   -0.0626   23.9890 C   0  0  0  0  0  0  0  0  0  0  0  0
   12.3697   -1.3298   22.2224 C   0  0  0  0  0  0  0  0  0  0  0  0
    8.2504    0.0168   21.4265 C   0  0  0  0  0  0  0  0  0  0  0  0
    6.8724    2.6940   24.4933 C   0  0  0  0  0  0  0  0  0  0  0  0
    8.0155   -2.1541   22.4325 C   0  0  0  0  0  0  0  0  0  0  0  0
    6.9880   -1.9367   21.3575 C   0  0  0  0  0  0  0  0  0  0  0  0
    7.8737   -0.1194   23.8825 C   0  0  0  0  0  0  0  0  0  0  0  0
    8.6253   -0.7606   22.6923 C   0  0  3  0  0  0  0  0  0  0  0  0
    6.9648    3.9486   22.3412 C   0  0  0  0  0  0  0  0  0  0  0  0
    7.7402    1.8296   25.3718 C   0  0  0  0  0  0  0  0  0  0  0  0
    6.3072    0.3768   17.3417 N   0  0  0  0  0  0  0  0  0  0  0  0
    7.2305   -0.6898   20.7785 N   0  0  0  0  0  0  0  0  0  0  0  0
    8.6625    1.0133   24.4989 N   0  0  3  0  0  0  0  0  0  0  0  0
    7.5557    3.1108   23.3599 N   0  0  0  0  0  0  0  0  0  0  0  0
    8.8307    1.0392   21.0784 O   0  0  0  0  0  0  0  0  0  0  0  0
    5.7088    2.9792   24.7638 O   0  0  0  0  0  0  0  0  0  0  0  0
    9.7379   -0.4352   26.1497 O   0  0  0  0  0  0  0  0  0  0  0  0
   10.7232    1.8052   25.5160 O   0  0  0  0  0  0  0  0  0  0  0  0
    9.9496    0.5589   24.9527 S   0  0  0  0  0  0  0  0  0  0  0  0
   13.4299   -2.1369   21.1058 Cl  0  0  0  0  0  0  0  0  0  0  0  0
    2.5443    3.3508   20.6368 H   0  0  0  0  0  0  0  0  0  0  0  0
    3.5189    2.1137   22.5166 H   0  0  0  0  0  0  0  0  0  0  0  0
    3.3421    2.9744   18.3363 H   0  0  0  0  0  0  0  0  0  0  0  0
    5.3131    0.4893   22.1569 H   0  0  0  0  0  0  0  0  0  0  0  0
   12.5131    0.5941   24.9766 H   0  0  0  0  0  0  0  0  0  0  0  0
   13.9928   -0.5163   23.3777 H   0  0  0  0  0  0  0  0  0  0  0  0
   10.6112   -2.0126   21.2223 H   0  0  0  0  0  0  0  0  0  0  0  0
    4.9151    1.7511   16.7471 H   0  0  0  0  0  0  0  0  0  0  0  0
    7.6455   -0.9765   18.1038 H   0  0  0  0  0  0  0  0  0  0  0  0
    7.5156   -2.5505   23.3300 H   0  0  0  0  0  0  0  0  0  0  0  0
    8.7653   -2.9031   22.1412 H   0  0  0  0  0  0  0  0  0  0  0  0
    7.0595   -2.7251   20.5718 H   0  0  0  0  0  0  0  0  0  0  0  0
    5.9532   -1.9956   21.7710 H   0  0  0  0  0  0  0  0  0  0  0  0
    6.8825    0.2594   23.5683 H   0  0  0  0  0  0  0  0  0  0  0  0
    7.6513   -0.8636   24.6727 H   0  0  0  0  0  0  0  0  0  0  0  0
    6.4900    3.3168   21.5761 H   0  0  0  0  0  0  0  0  0  0  0  0
    6.2075    4.6024   22.7982 H   0  0  0  0  0  0  0  0  0  0  0  0
    7.7473    4.5646   21.8740 H   0  0  0  0  0  0  0  0  0  0  0  0
    8.2769    2.4562   26.0903 H   0  0  0  0  0  0  0  0  0  0  0  0
    7.1195    1.1090   25.9124 H   0  0  0  0  0  0  0  0  0  0  0  0
    8.5193    2.8121   23.2401 H   0  0  0  0  0  0  0  0  0  0  0  0
  1  2  2  0  0  0  0
  1  3  1  0  0  0  0
  2  4  1  0  0  0  0
  3 10  2  0  0  0  0
  4 11  2  0  0  0  0
  5  6  2  0  0  0  0
  5 14  1  0  0  0  0
  6 15  1  0  0  0  0
  7 12  1  0  0  0  0
  7 15  2  0  0  0  0
  8 10  1  0  0  0  0
  8 24  2  0  0  0  0
  9 13  2  0  0  0  0
  9 24  1  0  0  0  0
 10 11  1  0  0  0  0
 11 13  1  0  0  0  0
 12 14  2  0  0  0  0
 12 21  1  0  0  0  0
 13 25  1  0  0  0  0
 14 32  1  0  0  0  0
 15 33  1  0  0  0  0
 16 21  1  0  0  0  0
 16 25  1  0  0  0  0
 16 28  2  0  0  0  0
 17 23  1  0  0  0  0
 17 27  1  0  0  0  0
 17 29  2  0  0  0  0
 18 19  1  0  0  0  0
 18 21  1  0  0  0  0
 19 25  1  0  0  0  0
 20 21  1  0  0  0  0
 20 26  1  0  0  0  0
 22 27  1  0  0  0  0
 23 26  1  0  0  0  0
 26 32  1  0  0  0  0
 30 32  2  0  0  0  0
 31 32  2  0  0  0  0
  1 34  1  0  0  0  0
  2 35  1  0  0  0  0
  3 36  1  0  0  0  0
  4 37  1  0  0  0  0
  5 38  1  0  0  0  0
  6 39  1  0  0  0  0
  7 40  1  0  0  0  0
  8 41  1  0  0  0  0
  9 42  1  0  0  0  0
 18 43  1  0  0  0  0
 18 44  1  0  0  0  0
 19 45  1  0  0  0  0
 19 46  1  0  0  0  0
 20 47  1  0  0  0  0
 20 48  1  0  0  0  0
 22 49  1  0  0  0  0
 22 50  1  0  0  0  0
 22 51  1  0  0  0  0
 23 52  1  0  0  0  0
 23 53  1  0  0  0  0
 27 54  1  0  0  0  0
M  END
> <scaffold>
tetralinlike-5spiro-isoquinoline

> <compound>
ALP-POS-4483ae88-2

> <compound_smiles>
CNC(=O)CN1CC2(CCN(C2=O)c3cncc4c3cccc4)c5cc(ccc5S1(=O)=O)Cl

> <enantiomer_smiles>
CNC(=O)C[N@@]1C[C@@]2(CCN(C2=O)c3cncc4c3cccc4)c5cc(ccc5S1(=O)=O)Cl

> <clash_score>
0.722894638232634

> <docking_score>
3.4028234663852886e+38

> <overlap_score>
1.0

> <MMFF_internal_energy>
231.80144138348098

> <docked_smiles>
CNC(=O)C[N@@]1C[C@@]2(CCN(C2=O)c3cncc4c3cccc4)c5cc(ccc5S1(=O)=O)Cl

$$$$
LUO-POS-868e8996-8_1
  -OEChem-01042202303D

 52 56  0     1  0  0  0  0  0999 V2000
    3.3444    2.6278   20.4409 C   0  0  0  0  0  0  0  0  0  0  0  0
    3.8974    1.9290   21.5048 C   0  0  0  0  0  0  0  0  0  0  0  0
    3.7877    2.4205   19.1658 C   0  0  0  0  0  0  0  0  0  0  0  0
    4.8986    1.0232   21.2985 C   0  0  0  0  0  0  0  0  0  0  0  0
   12.0781    0.0316   24.1532 C   0  0  0  0  0  0  0  0  0  0  0  0
   12.9147   -0.6032   23.2559 C   0  0  0  0  0  0  0  0  0  0  0  0
   11.0005   -1.4332   22.0435 C   0  0  0  0  0  0  0  0  0  0  0  0
    5.3288    1.2339   17.6062 C   0  0  0  0  0  0  0  0  0  0  0  0
    6.8449   -0.2893   18.3747 C   0  0  0  0  0  0  0  0  0  0  0  0
    4.8238    1.4906   18.9051 C   0  0  0  0  0  0  0  0  0  0  0  0
    5.3995    0.7732   19.9944 C   0  0  0  0  0  0  0  0  0  0  0  0
   10.7056   -0.0626   23.9890 C   0  0  0  0  0  0  0  0  0  0  0  0
   10.1421   -0.7766   22.9242 C   0  0  0  0  0  0  0  0  0  0  0  0
    6.4452   -0.1472   19.6975 C   0  0  0  0  0  0  0  0  0  0  0  0
   12.3697   -1.3298   22.2224 C   0  0  0  0  0  0  0  0  0  0  0  0
    9.9496    0.5589   24.9527 C   0  0  0  0  0  0  0  0  0  0  0  0
    6.9880   -1.9367   21.3575 C   0  0  0  0  0  0  0  0  0  0  0  0
    8.2504    0.0168   21.4265 C   0  0  0  0  0  0  0  0  0  0  0  0
    7.2660    2.1065   26.0384 C   0  0  0  0  0  0  0  0  0  0  0  0
    8.0155   -2.1541   22.4325 C   0  0  0  0  0  0  0  0  0  0  0  0
    7.8737   -0.1194   23.8825 C   0  0  0  0  0  0  0  0  0  0  0  0
    8.6253   -0.7606   22.6923 C   0  0  1  0  0  0  0  0  0  0  0  0
    6.4862    3.5016   27.9514 C   0  0  0  0  0  0  0  0  0  0  0  0
    8.0876    2.2170   24.7795 C   0  0  0  0  0  0  0  0  0  0  0  0
    6.3072    0.3768   17.3417 N   0  0  0  0  0  0  0  0  0  0  0  0
    7.2305   -0.6898   20.7785 N   0  0  0  0  0  0  0  0  0  0  0  0
    8.6625    1.0133   24.4989 N   0  0  0  0  0  0  0  0  0  0  0  0
    7.2091    3.3174   26.7136 N   0  0  0  0  0  0  0  0  0  0  0  0
   10.3251    0.7340   26.1064 O   0  0  0  0  0  0  0  0  0  0  0  0
    6.1256   -2.7638   21.0990 O   0  0  0  0  0  0  0  0  0  0  0  0
    8.7812    1.0656   21.0999 O   0  0  0  0  0  0  0  0  0  0  0  0
    6.7218    1.0670   26.4012 O   0  0  0  0  0  0  0  0  0  0  0  0
   13.4287   -2.1485   21.1132 Cl  0  0  0  0  0  0  0  0  0  0  0  0
    2.5443    3.3508   20.6368 H   0  0  0  0  0  0  0  0  0  0  0  0
    3.5189    2.1137   22.5166 H   0  0  0  0  0  0  0  0  0  0  0  0
    3.3421    2.9744   18.3363 H   0  0  0  0  0  0  0  0  0  0  0  0
    5.3131    0.4893   22.1569 H   0  0  0  0  0  0  0  0  0  0  0  0
   12.5193    0.5899   24.9743 H   0  0  0  0  0  0  0  0  0  0  0  0
   13.9921   -0.5285   23.3850 H   0  0  0  0  0  0  0  0  0  0  0  0
   10.6066   -2.0252   21.2291 H   0  0  0  0  0  0  0  0  0  0  0  0
    4.9151    1.7511   16.7471 H   0  0  0  0  0  0  0  0  0  0  0  0
    7.6455   -0.9765   18.1038 H   0  0  0  0  0  0  0  0  0  0  0  0
    7.5414   -2.5801   23.3234 H   0  0  0  0  0  0  0  0  0  0  0  0
    8.7503   -2.8731   22.0498 H   0  0  0  0  0  0  0  0  0  0  0  0
    6.9287    0.3240   23.5694 H   0  0  0  0  0  0  0  0  0  0  0  0
    7.6686   -0.8487   24.6632 H   0  0  0  0  0  0  0  0  0  0  0  0
    5.4526    3.8067   27.7311 H   0  0  0  0  0  0  0  0  0  0  0  0
    6.4774    2.5569   28.5148 H   0  0  0  0  0  0  0  0  0  0  0  0
    6.9787    4.2815   28.5509 H   0  0  0  0  0  0  0  0  0  0  0  0
    7.4426    2.4995   23.9422 H   0  0  0  0  0  0  0  0  0  0  0  0
    8.8653    2.9752   24.9095 H   0  0  0  0  0  0  0  0  0  0  0  0
    7.7000    4.1140   26.3182 H   0  0  0  0  0  0  0  0  0  0  0  0
  1  2  2  0  0  0  0
  1  3  1  0  0  0  0
  2  4  1  0  0  0  0
  3 10  2  0  0  0  0
  4 11  2  0  0  0  0
  5  6  2  0  0  0  0
  5 12  1  0  0  0  0
  6 15  1  0  0  0  0
  7 13  1  0  0  0  0
  7 15  2  0  0  0  0
  8 10  1  0  0  0  0
  8 25  2  0  0  0  0
  9 14  2  0  0  0  0
  9 25  1  0  0  0  0
 10 11  1  0  0  0  0
 11 14  1  0  0  0  0
 12 13  2  0  0  0  0
 12 16  1  0  0  0  0
 13 22  1  1  0  0  0
 14 26  1  0  0  0  0
 15 33  1  0  0  0  0
 16 27  1  0  0  0  0
 16 29  2  0  0  0  0
 17 20  1  0  0  0  0
 17 26  1  0  0  0  0
 17 30  2  0  0  0  0
 18 22  1  1  0  0  0
 18 26  1  0  0  0  0
 18 31  2  0  0  0  0
 19 24  1  0  0  0  0
 19 28  1  0  0  0  0
 19 32  2  0  0  0  0
 20 22  1  6  0  0  0
 21 22  1  6  0  0  0
 21 27  1  0  0  0  0
 23 28  1  0  0  0  0
 24 27  1  0  0  0  0
  1 34  1  0  0  0  0
  2 35  1  0  0  0  0
  3 36  1  0  0  0  0
  4 37  1  0  0  0  0
  5 38  1  0  0  0  0
  6 39  1  0  0  0  0
  7 40  1  0  0  0  0
  8 41  1  0  0  0  0
  9 42  1  0  0  0  0
 20 43  1  0  0  0  0
 20 44  1  0  0  0  0
 21 45  1  0  0  0  0
 21 46  1  0  0  0  0
 23 47  1  0  0  0  0
 23 48  1  0  0  0  0
 23 49  1  0  0  0  0
 24 50  1  0  0  0  0
 24 51  1  0  0  0  0
 28 52  1  0  0  0  0
M  END
> <scaffold>
tetrahydroisoquinoline-5spiro-isoquinoline

> <compound>
LUO-POS-868e8996-8

> <compound_smiles>
CNC(=O)CN1C[C@]2(CC(=O)N(C2=O)c3cncc4c3cccc4)c5cc(ccc5C1=O)Cl

> <enantiomer_smiles>
CNC(=O)CN1C[C@]2(CC(=O)N(C2=O)c3cncc4c3cccc4)c5cc(ccc5C1=O)Cl

> <clash_score>
0

> <docking_score>
3.4028234663852886e+38

> <overlap_score>
1.015144944190979

> <MMFF_internal_energy>
123.52121666996847

> <docked_smiles>
CNC(=O)CN1C[C@]2(CC(=O)N(C2=O)c3cncc4c3cccc4)c5cc(ccc5C1=O)Cl

$$$$
ALP-POS-ecbed2ba-14_1
  -OEChem-01042202303D

 56 60  0     1  0  0  0  0  0999 V2000
    3.6981    3.4039   25.6197 C   0  0  0  0  0  0  0  0  0  0  0  0
    3.3444    2.6278   20.4409 C   0  0  0  0  0  0  0  0  0  0  0  0
    3.8974    1.9290   21.5048 C   0  0  0  0  0  0  0  0  0  0  0  0
    3.7877    2.4205   19.1658 C   0  0  0  0  0  0  0  0  0  0  0  0
    4.8986    1.0232   21.2985 C   0  0  0  0  0  0  0  0  0  0  0  0
   12.0781    0.0316   24.1532 C   0  0  0  0  0  0  0  0  0  0  0  0
   12.9147   -0.6032   23.2559 C   0  0  0  0  0  0  0  0  0  0  0  0
   11.0005   -1.4332   22.0435 C   0  0  0  0  0  0  0  0  0  0  0  0
    5.3288    1.2339   17.6062 C   0  0  0  0  0  0  0  0  0  0  0  0
    6.8449   -0.2893   18.3747 C   0  0  0  0  0  0  0  0  0  0  0  0
    4.8238    1.4906   18.9051 C   0  0  0  0  0  0  0  0  0  0  0  0
    5.3995    0.7732   19.9944 C   0  0  0  0  0  0  0  0  0  0  0  0
   10.7056   -0.0626   23.9890 C   0  0  0  0  0  0  0  0  0  0  0  0
   10.1421   -0.7766   22.9242 C   0  0  0  0  0  0  0  0  0  0  0  0
    6.4452   -0.1472   19.6975 C   0  0  0  0  0  0  0  0  0  0  0  0
   12.3697   -1.3298   22.2224 C   0  0  0  0  0  0  0  0  0  0  0  0
    8.2504    0.0168   21.4265 C   0  0  0  0  0  0  0  0  0  0  0  0
    6.7850    2.6041   25.0047 C   0  0  0  0  0  0  0  0  0  0  0  0
    9.9496    0.5589   24.9527 C   0  0  0  0  0  0  0  0  0  0  0  0
    8.0155   -2.1541   22.4325 C   0  0  0  0  0  0  0  0  0  0  0  0
    6.9880   -1.9367   21.3575 C   0  0  0  0  0  0  0  0  0  0  0  0
    7.8737   -0.1194   23.8825 C   0  0  0  0  0  0  0  0  0  0  0  0
    8.6253   -0.7606   22.6923 C   0  0  3  0  0  0  0  0  0  0  0  0
    4.9649    4.1271   25.7155 C   0  0  0  0  0  0  0  0  0  0  0  0
    7.8612    1.7144   25.5743 C   0  0  0  0  0  0  0  0  0  0  0  0
    2.6908    2.8330   25.5434 N   0  0  0  0  0  0  0  0  0  0  0  0
    6.3072    0.3768   17.3417 N   0  0  0  0  0  0  0  0  0  0  0  0
    7.2305   -0.6898   20.7785 N   0  0  0  0  0  0  0  0  0  0  0  0
    6.0523    3.2234   26.0062 N   0  0  0  0  0  0  0  0  0  0  0  0
    8.6625    1.0133   24.4989 N   0  3  3  0  0  0  0  0  0  0  0  0
    8.8307    1.0396   21.0789 O   0  0  0  0  0  0  0  0  0  0  0  0
    6.5982    2.7493   23.7996 O   0  0  0  0  0  0  0  0  0  0  0  0
   13.4286   -2.1403   21.1072 Cl  0  0  0  0  0  0  0  0  0  0  0  0
    2.5443    3.3508   20.6368 H   0  0  0  0  0  0  0  0  0  0  0  0
    3.5189    2.1137   22.5166 H   0  0  0  0  0  0  0  0  0  0  0  0
    3.3421    2.9744   18.3363 H   0  0  0  0  0  0  0  0  0  0  0  0
    5.3131    0.4893   22.1569 H   0  0  0  0  0  0  0  0  0  0  0  0
   12.5040    0.5973   24.9741 H   0  0  0  0  0  0  0  0  0  0  0  0
   13.9926   -0.5176   23.3780 H   0  0  0  0  0  0  0  0  0  0  0  0
   10.6057   -2.0168   21.2239 H   0  0  0  0  0  0  0  0  0  0  0  0
    4.9151    1.7511   16.7471 H   0  0  0  0  0  0  0  0  0  0  0  0
    7.6455   -0.9765   18.1038 H   0  0  0  0  0  0  0  0  0  0  0  0
    9.7630   -0.1207   25.8244 H   0  0  0  0  0  0  0  0  0  0  0  0
   10.4585    1.4662   25.3691 H   0  0  0  0  0  0  0  0  0  0  0  0
    7.5159   -2.5477   23.3319 H   0  0  0  0  0  0  0  0  0  0  0  0
    8.7613   -2.9061   22.1409 H   0  0  0  0  0  0  0  0  0  0  0  0
    7.0594   -2.7244   20.5709 H   0  0  0  0  0  0  0  0  0  0  0  0
    5.9531   -1.9957   21.7710 H   0  0  0  0  0  0  0  0  0  0  0  0
    6.8972    0.2930   23.5750 H   0  0  0  0  0  0  0  0  0  0  0  0
    7.6778   -0.8486   24.6901 H   0  0  0  0  0  0  0  0  0  0  0  0
    5.2000    4.6364   24.7766 H   0  0  0  0  0  0  0  0  0  0  0  0
    4.9330    4.8737   26.5141 H   0  0  0  0  0  0  0  0  0  0  0  0
    7.4204    0.9331   26.1997 H   0  0  0  0  0  0  0  0  0  0  0  0
    8.5777    2.3054   26.1514 H   0  0  0  0  0  0  0  0  0  0  0  0
    6.2643    3.0239   26.9796 H   0  0  0  0  0  0  0  0  0  0  0  0
    8.7953    1.7233   23.7550 H   0  0  0  0  0  0  0  0  0  0  0  0
  1 24  1  0  0  0  0
  1 26  3  0  0  0  0
  2  3  2  0  0  0  0
  2  4  1  0  0  0  0
  3  5  1  0  0  0  0
  4 11  2  0  0  0  0
  5 12  2  0  0  0  0
  6  7  2  0  0  0  0
  6 13  1  0  0  0  0
  7 16  1  0  0  0  0
  8 14  1  0  0  0  0
  8 16  2  0  0  0  0
  9 11  1  0  0  0  0
  9 27  2  0  0  0  0
 10 15  2  0  0  0  0
 10 27  1  0  0  0  0
 11 12  1  0  0  0  0
 12 15  1  0  0  0  0
 13 14  2  0  0  0  0
 13 19  1  0  0  0  0
 14 23  1  0  0  0  0
 15 28  1  0  0  0  0
 16 33  1  0  0  0  0
 17 23  1  0  0  0  0
 17 28  1  0  0  0  0
 17 31  2  0  0  0  0
 18 25  1  0  0  0  0
 18 29  1  0  0  0  0
 18 32  2  0  0  0  0
 19 30  1  0  0  0  0
 20 21  1  0  0  0  0
 20 23  1  0  0  0  0
 21 28  1  0  0  0  0
 22 23  1  0  0  0  0
 22 30  1  0  0  0  0
 24 29  1  0  0  0  0
 25 30  1  0  0  0  0
  2 34  1  0  0  0  0
  3 35  1  0  0  0  0
  4 36  1  0  0  0  0
  5 37  1  0  0  0  0
  6 38  1  0  0  0  0
  7 39  1  0  0  0  0
  8 40  1  0  0  0  0
  9 41  1  0  0  0  0
 10 42  1  0  0  0  0
 19 43  1  0  0  0  0
 19 44  1  0  0  0  0
 20 45  1  0  0  0  0
 20 46  1  0  0  0  0
 21 47  1  0  0  0  0
 21 48  1  0  0  0  0
 22 49  1  0  0  0  0
 22 50  1  0  0  0  0
 24 51  1  0  0  0  0
 24 52  1  0  0  0  0
 25 53  1  0  0  0  0
 25 54  1  0  0  0  0
 29 55  1  0  0  0  0
 30 56  1  0  0  0  0
M  CHG  1  30   1
M  END
> <scaffold>
tetrahydroisoquinoline-5spiro-isoquinoline

> <compound>
ALP-POS-ecbed2ba-14

> <compound_smiles>
c1ccc2c(c1)cncc2N3CCC4(C3=O)CN(Cc5c4cc(cc5)Cl)CC(=O)NCC#N

> <enantiomer_smiles>
c1ccc2c(c1)cncc2N3CC[C@]4(C3=O)C[N@](Cc5c4cc(cc5)Cl)CC(=O)NCC#N

> <clash_score>
0

> <docking_score>
3.4028234663852886e+38

> <overlap_score>
0.973984956741333

> <MMFF_internal_energy>
167.30784350597816

> <docked_smiles>
c1ccc2c(c1)cncc2N3CC[C@]4(C3=O)C[N@H+](Cc5c4cc(cc5)Cl)CC(=O)NCC#N

$$$$
LUO-POS-b4dec3be-1_1
  -OEChem-01042202303D

 55 59  0     1  0  0  0  0  0999 V2000
    3.7877    2.4205   19.1658 C   0  0  0  0  0  0  0  0  0  0  0  0
   12.0781    0.0316   24.1532 C   0  0  0  0  0  0  0  0  0  0  0  0
    3.3444    2.6278   20.4409 C   0  0  0  0  0  0  0  0  0  0  0  0
   12.9147   -0.6032   23.2559 C   0  0  0  0  0  0  0  0  0  0  0  0
    4.8986    1.0232   21.2985 C   0  0  0  0  0  0  0  0  0  0  0  0
   11.0005   -1.4332   22.0435 C   0  0  0  0  0  0  0  0  0  0  0  0
    5.3288    1.2339   17.6062 C   0  0  0  0  0  0  0  0  0  0  0  0
    6.8449   -0.2893   18.3747 C   0  0  0  0  0  0  0  0  0  0  0  0
    4.8238    1.4906   18.9051 C   0  0  0  0  0  0  0  0  0  0  0  0
    5.3995    0.7732   19.9944 C   0  0  0  0  0  0  0  0  0  0  0  0
   10.7056   -0.0626   23.9890 C   0  0  0  0  0  0  0  0  0  0  0  0
   10.1421   -0.7766   22.9242 C   0  0  0  0  0  0  0  0  0  0  0  0
    6.4452   -0.1472   19.6975 C   0  0  0  0  0  0  0  0  0  0  0  0
    3.8974    1.9290   21.5048 C   0  0  0  0  0  0  0  0  0  0  0  0
   12.3697   -1.3298   22.2224 C   0  0  0  0  0  0  0  0  0  0  0  0
    8.2504    0.0168   21.4265 C   0  0  0  0  0  0  0  0  0  0  0  0
    6.7850    2.6041   25.0047 C   0  0  0  0  0  0  0  0  0  0  0  0
    9.9496    0.5589   24.9527 C   0  0  0  0  0  0  0  0  0  0  0  0
    8.0155   -2.1541   22.4325 C   0  0  0  0  0  0  0  0  0  0  0  0
    6.9880   -1.9367   21.3575 C   0  0  0  0  0  0  0  0  0  0  0  0
    7.8737   -0.1194   23.8825 C   0  0  0  0  0  0  0  0  0  0  0  0
    8.6253   -0.7606   22.6923 C   0  0  1  0  0  0  0  0  0  0  0  0
    4.5270    3.4782   25.5291 C   0  0  0  0  0  0  0  0  0  0  0  0
    7.8612    1.7144   25.5743 C   0  0  0  0  0  0  0  0  0  0  0  0
    6.3072    0.3768   17.3417 N   0  0  0  0  0  0  0  0  0  0  0  0
    7.2305   -0.6898   20.7785 N   0  0  0  0  0  0  0  0  0  0  0  0
    5.6894    2.6850   25.8510 N   0  0  0  0  0  0  0  0  0  0  0  0
    8.6625    1.0133   24.4989 N   0  3  3  0  0  0  0  0  0  0  0  0
    8.8307    1.0396   21.0789 O   0  0  0  0  0  0  0  0  0  0  0  0
    6.8869    3.1779   23.9236 O   0  0  0  0  0  0  0  0  0  0  0  0
    3.4330    2.1555   22.7513 F   0  0  0  0  0  0  0  0  0  0  0  0
   13.4286   -2.1403   21.1072 Cl  0  0  0  0  0  0  0  0  0  0  0  0
    3.3411    2.9735   18.3363 H   0  0  0  0  0  0  0  0  0  0  0  0
   12.5040    0.5973   24.9741 H   0  0  0  0  0  0  0  0  0  0  0  0
    2.5441    3.3506   20.6360 H   0  0  0  0  0  0  0  0  0  0  0  0
   13.9926   -0.5176   23.3780 H   0  0  0  0  0  0  0  0  0  0  0  0
    5.3117    0.4882   22.1567 H   0  0  0  0  0  0  0  0  0  0  0  0
   10.6057   -2.0168   21.2239 H   0  0  0  0  0  0  0  0  0  0  0  0
    4.9147    1.7515   16.7472 H   0  0  0  0  0  0  0  0  0  0  0  0
    7.6456   -0.9763   18.1039 H   0  0  0  0  0  0  0  0  0  0  0  0
    9.7630   -0.1207   25.8244 H   0  0  0  0  0  0  0  0  0  0  0  0
   10.4585    1.4662   25.3691 H   0  0  0  0  0  0  0  0  0  0  0  0
    7.5159   -2.5477   23.3319 H   0  0  0  0  0  0  0  0  0  0  0  0
    8.7613   -2.9061   22.1409 H   0  0  0  0  0  0  0  0  0  0  0  0
    7.0594   -2.7244   20.5709 H   0  0  0  0  0  0  0  0  0  0  0  0
    5.9531   -1.9957   21.7710 H   0  0  0  0  0  0  0  0  0  0  0  0
    6.8972    0.2930   23.5750 H   0  0  0  0  0  0  0  0  0  0  0  0
    7.6778   -0.8486   24.6901 H   0  0  0  0  0  0  0  0  0  0  0  0
    4.6459    4.4896   25.9451 H   0  0  0  0  0  0  0  0  0  0  0  0
    4.4179    3.5418   24.4364 H   0  0  0  0  0  0  0  0  0  0  0  0
    3.6312    3.0075   25.9603 H   0  0  0  0  0  0  0  0  0  0  0  0
    7.4204    0.9331   26.1997 H   0  0  0  0  0  0  0  0  0  0  0  0
    8.5777    2.3054   26.1514 H   0  0  0  0  0  0  0  0  0  0  0  0
    5.6843    2.1547   26.7176 H   0  0  0  0  0  0  0  0  0  0  0  0
    8.7953    1.7233   23.7550 H   0  0  0  0  0  0  0  0  0  0  0  0
  1  3  2  0  0  0  0
  1  9  1  0  0  0  0
  2  4  2  0  0  0  0
  2 11  1  0  0  0  0
  3 14  1  0  0  0  0
  4 15  1  0  0  0  0
  5 10  1  0  0  0  0
  5 14  2  0  0  0  0
  6 12  1  0  0  0  0
  6 15  2  0  0  0  0
  7  9  2  0  0  0  0
  7 25  1  0  0  0  0
  8 13  1  0  0  0  0
  8 25  2  0  0  0  0
  9 10  1  0  0  0  0
 10 13  2  0  0  0  0
 11 12  2  0  0  0  0
 11 18  1  0  0  0  0
 12 22  1  1  0  0  0
 13 26  1  0  0  0  0
 14 31  1  0  0  0  0
 15 32  1  0  0  0  0
 16 22  1  6  0  0  0
 16 26  1  0  0  0  0
 16 29  2  0  0  0  0
 17 24  1  0  0  0  0
 17 27  1  0  0  0  0
 17 30  2  0  0  0  0
 18 28  1  0  0  0  0
 19 20  1  0  0  0  0
 19 22  1  6  0  0  0
 20 26  1  0  0  0  0
 21 22  1  1  0  0  0
 21 28  1  0  0  0  0
 23 27  1  0  0  0  0
 24 28  1  0  0  0  0
  1 33  1  0  0  0  0
  2 34  1  0  0  0  0
  3 35  1  0  0  0  0
  4 36  1  0  0  0  0
  5 37  1  0  0  0  0
  6 38  1  0  0  0  0
  7 39  1  0  0  0  0
  8 40  1  0  0  0  0
 18 41  1  0  0  0  0
 18 42  1  0  0  0  0
 19 43  1  0  0  0  0
 19 44  1  0  0  0  0
 20 45  1  0  0  0  0
 20 46  1  0  0  0  0
 21 47  1  0  0  0  0
 21 48  1  0  0  0  0
 23 49  1  0  0  0  0
 23 50  1  0  0  0  0
 23 51  1  0  0  0  0
 24 52  1  0  0  0  0
 24 53  1  0  0  0  0
 27 54  1  0  0  0  0
 28 55  1  0  0  0  0
M  CHG  1  28   1
M  END
> <scaffold>
tetrahydroisoquinoline-5spiro-isoquinoline

> <compound>
LUO-POS-b4dec3be-1

> <compound_smiles>
CNC(=O)CN1Cc2ccc(cc2[C@@]3(C1)CCN(C3=O)c4cncc5c4cc(cc5)F)Cl

> <enantiomer_smiles>
CNC(=O)C[N@]1Cc2ccc(cc2[C@@]3(C1)CCN(C3=O)c4cncc5c4cc(cc5)F)Cl

> <clash_score>
0

> <docking_score>
3.4028234663852886e+38

> <overlap_score>
0.985761821269989

> <MMFF_internal_energy>
148.96566275914986

> <docked_smiles>
CNC(=O)C[N@H+]1Cc2ccc(cc2[C@@]3(C1)CCN(C3=O)c4cncc5c4cc(cc5)F)Cl

$$$$
EDJ-MED-94fddcec-7_1
  -OEChem-01042202303D

 53 57  0     1  0  0  0  0  0999 V2000
    4.8986    1.0232   21.2985 C   0  0  0  0  0  0  0  0  0  0  0  0
    3.8974    1.9290   21.5048 C   0  0  0  0  0  0  0  0  0  0  0  0
   12.0781    0.0316   24.1532 C   0  0  0  0  0  0  0  0  0  0  0  0
   12.9147   -0.6032   23.2559 C   0  0  0  0  0  0  0  0  0  0  0  0
    3.7877    2.4205   19.1658 C   0  0  0  0  0  0  0  0  0  0  0  0
   11.0005   -1.4332   22.0435 C   0  0  0  0  0  0  0  0  0  0  0  0
    5.3288    1.2339   17.6062 C   0  0  0  0  0  0  0  0  0  0  0  0
    6.8449   -0.2893   18.3747 C   0  0  0  0  0  0  0  0  0  0  0  0
    5.3995    0.7732   19.9944 C   0  0  0  0  0  0  0  0  0  0  0  0
    4.8238    1.4906   18.9051 C   0  0  0  0  0  0  0  0  0  0  0  0
   10.1421   -0.7766   22.9242 C   0  0  0  0  0  0  0  0  0  0  0  0
    6.4452   -0.1472   19.6975 C   0  0  0  0  0  0  0  0  0  0  0  0
    3.3444    2.6278   20.4409 C   0  0  0  0  0  0  0  0  0  0  0  0
   10.7056   -0.0626   23.9890 C   0  0  0  0  0  0  0  0  0  0  0  0
   12.3697   -1.3298   22.2224 C   0  0  0  0  0  0  0  0  0  0  0  0
    8.2504    0.0168   21.4265 C   0  0  0  0  0  0  0  0  0  0  0  0
    8.0155   -2.1541   22.4325 C   0  0  0  0  0  0  0  0  0  0  0  0
    7.8737   -0.1194   23.8825 C   0  0  0  0  0  0  0  0  0  0  0  0
    6.9880   -1.9367   21.3575 C   0  0  0  0  0  0  0  0  0  0  0  0
    8.6625    1.0133   24.4989 C   0  0  0  0  0  0  0  0  0  0  0  0
    8.6253   -0.7606   22.6923 C   0  0  3  0  0  0  0  0  0  0  0  0
    0.2025    2.0833   21.4737 C   0  0  0  0  0  0  0  0  0  0  0  0
    6.3072    0.3768   17.3417 N   0  0  0  0  0  0  0  0  0  0  0  0
    7.2305   -0.6898   20.7785 N   0  0  0  0  0  0  0  0  0  0  0  0
    2.2947    3.5766   20.6954 N   0  0  0  0  0  0  0  0  0  0  0  0
    8.7566    1.0941   21.1311 O   0  0  0  0  0  0  0  0  0  0  0  0
    9.7120   -0.4300   26.1378 O   0  0  0  0  0  0  0  0  0  0  0  0
   10.7467    1.7884   25.4917 O   0  0  0  0  0  0  0  0  0  0  0  0
   -0.1233    4.3729   20.2825 O   0  0  0  0  0  0  0  0  0  0  0  0
    0.7362    2.4261   18.9350 O   0  0  0  0  0  0  0  0  0  0  0  0
    9.9496    0.5589   24.9527 S   0  0  0  0  0  0  0  0  0  0  0  0
    0.7022    3.1849   20.1694 S   0  0  0  0  0  0  0  0  0  0  0  0
   13.4302   -2.1437   21.1108 Cl  0  0  0  0  0  0  0  0  0  0  0  0
    5.3129    0.4891   22.1565 H   0  0  0  0  0  0  0  0  0  0  0  0
    3.5264    2.1066   22.5215 H   0  0  0  0  0  0  0  0  0  0  0  0
   12.5141    0.5961   24.9741 H   0  0  0  0  0  0  0  0  0  0  0  0
   13.9930   -0.5214   23.3817 H   0  0  0  0  0  0  0  0  0  0  0  0
    3.3490    2.9700   18.3283 H   0  0  0  0  0  0  0  0  0  0  0  0
   10.6120   -2.0228   21.2300 H   0  0  0  0  0  0  0  0  0  0  0  0
    4.9144    1.7516   16.7476 H   0  0  0  0  0  0  0  0  0  0  0  0
    7.6459   -0.9758   18.1038 H   0  0  0  0  0  0  0  0  0  0  0  0
    7.5792   -2.6139   23.3283 H   0  0  0  0  0  0  0  0  0  0  0  0
    8.7727   -2.8629   22.0635 H   0  0  0  0  0  0  0  0  0  0  0  0
    7.6629   -0.8655   24.6523 H   0  0  0  0  0  0  0  0  0  0  0  0
    6.9026    0.2573   23.5461 H   0  0  0  0  0  0  0  0  0  0  0  0
    7.0247   -2.7501   20.5941 H   0  0  0  0  0  0  0  0  0  0  0  0
    5.9565   -1.9488   21.7820 H   0  0  0  0  0  0  0  0  0  0  0  0
    8.7048    1.8247   23.7053 H   0  0  0  0  0  0  0  0  0  0  0  0
    8.0006    1.4860   25.2925 H   0  0  0  0  0  0  0  0  0  0  0  0
   -0.8147    1.7459   21.2687 H   0  0  0  0  0  0  0  0  0  0  0  0
    0.8901    1.2364   21.4915 H   0  0  0  0  0  0  0  0  0  0  0  0
    0.2418    2.6280   22.4183 H   0  0  0  0  0  0  0  0  0  0  0  0
    2.3417    4.0295   21.6232 H   0  0  0  0  0  0  0  0  0  0  0  0
  1  2  2  0  0  0  0
  1  9  1  0  0  0  0
  2 13  1  0  0  0  0
  3  4  2  0  0  0  0
  3 14  1  0  0  0  0
  4 15  1  0  0  0  0
  5 10  1  0  0  0  0
  5 13  2  0  0  0  0
  6 11  1  0  0  0  0
  6 15  2  0  0  0  0
  7 10  2  0  0  0  0
  7 23  1  0  0  0  0
  8 12  1  0  0  0  0
  8 23  2  0  0  0  0
  9 10  1  0  0  0  0
  9 12  2  0  0  0  0
 11 14  2  0  0  0  0
 11 21  1  0  0  0  0
 12 24  1  0  0  0  0
 13 25  1  0  0  0  0
 14 31  1  0  0  0  0
 15 33  1  0  0  0  0
 16 21  1  0  0  0  0
 16 24  1  0  0  0  0
 16 26  2  0  0  0  0
 17 19  1  0  0  0  0
 17 21  1  0  0  0  0
 18 20  1  0  0  0  0
 18 21  1  0  0  0  0
 19 24  1  0  0  0  0
 20 31  1  0  0  0  0
 22 32  1  0  0  0  0
 25 32  1  0  0  0  0
 27 31  2  0  0  0  0
 28 31  2  0  0  0  0
 29 32  2  0  0  0  0
 30 32  2  0  0  0  0
  1 34  1  0  0  0  0
  2 35  1  0  0  0  0
  3 36  1  0  0  0  0
  4 37  1  0  0  0  0
  5 38  1  0  0  0  0
  6 39  1  0  0  0  0
  7 40  1  0  0  0  0
  8 41  1  0  0  0  0
 17 42  1  0  0  0  0
 17 43  1  0  0  0  0
 18 44  1  0  0  0  0
 18 45  1  0  0  0  0
 19 46  1  0  0  0  0
 19 47  1  0  0  0  0
 20 48  1  0  0  0  0
 20 49  1  0  0  0  0
 22 50  1  0  0  0  0
 22 51  1  0  0  0  0
 22 52  1  0  0  0  0
 25 53  1  0  0  0  0
M  END
> <scaffold>
tetralinlike-5spiro-isoquinoline

> <compound>
EDJ-MED-94fddcec-7

> <compound_smiles>
CS(=O)(=O)Nc1ccc2c(c1)cncc2N3CCC4(C3=O)CCS(=O)(=O)c5c4cc(cc5)Cl

> <enantiomer_smiles>
CS(=O)(=O)Nc1ccc2c(c1)cncc2N3CC[C@@]4(C3=O)CCS(=O)(=O)c5c4cc(cc5)Cl

> <clash_score>
2.359175848665573

> <docking_score>
3.4028234663852886e+38

> <overlap_score>
1.0

> <MMFF_internal_energy>
242.36613105942618

> <docked_smiles>
CS(=O)(=O)Nc1ccc2c(c1)cncc2N3CC[C@@]4(C3=O)CCS(=O)(=O)c5c4cc(cc5)Cl

$$$$
ALP-POS-afe0272e-1_1
  -OEChem-01042202303D

 55 59  0     1  0  0  0  0  0999 V2000
    3.3444    2.6278   20.4409 C   0  0  0  0  0  0  0  0  0  0  0  0
    3.8974    1.9290   21.5048 C   0  0  0  0  0  0  0  0  0  0  0  0
    3.7877    2.4205   19.1658 C   0  0  0  0  0  0  0  0  0  0  0  0
    4.8986    1.0232   21.2985 C   0  0  0  0  0  0  0  0  0  0  0  0
   12.0781    0.0316   24.1532 C   0  0  0  0  0  0  0  0  0  0  0  0
   11.0005   -1.4332   22.0435 C   0  0  0  0  0  0  0  0  0  0  0  0
    5.3288    1.2339   17.6062 C   0  0  0  0  0  0  0  0  0  0  0  0
    6.8449   -0.2893   18.3747 C   0  0  0  0  0  0  0  0  0  0  0  0
    4.8238    1.4906   18.9051 C   0  0  0  0  0  0  0  0  0  0  0  0
    5.3995    0.7732   19.9944 C   0  0  0  0  0  0  0  0  0  0  0  0
   10.7056   -0.0626   23.9890 C   0  0  0  0  0  0  0  0  0  0  0  0
   10.1421   -0.7766   22.9242 C   0  0  0  0  0  0  0  0  0  0  0  0
    6.4452   -0.1472   19.6975 C   0  0  0  0  0  0  0  0  0  0  0  0
   12.9147   -0.6032   23.2559 C   0  0  0  0  0  0  0  0  0  0  0  0
   12.3697   -1.3298   22.2224 C   0  0  0  0  0  0  0  0  0  0  0  0
    8.2504    0.0168   21.4265 C   0  0  0  0  0  0  0  0  0  0  0  0
    6.7847    2.6037   25.0047 C   0  0  0  0  0  0  0  0  0  0  0  0
    9.9496    0.5589   24.9527 C   0  0  0  0  0  0  0  0  0  0  0  0
    8.0155   -2.1541   22.4325 C   0  0  0  0  0  0  0  0  0  0  0  0
    6.9880   -1.9367   21.3575 C   0  0  0  0  0  0  0  0  0  0  0  0
    7.8737   -0.1194   23.8825 C   0  0  0  0  0  0  0  0  0  0  0  0
    8.6253   -0.7606   22.6923 C   0  0  3  0  0  0  0  0  0  0  0  0
    4.5265    3.4773   25.5294 C   0  0  0  0  0  0  0  0  0  0  0  0
    7.8612    1.7144   25.5743 C   0  0  0  0  0  0  0  0  0  0  0  0
    6.3072    0.3768   17.3417 N   0  0  0  0  0  0  0  0  0  0  0  0
    7.2305   -0.6898   20.7785 N   0  0  0  0  0  0  0  0  0  0  0  0
    5.6891    2.6845   25.8512 N   0  0  0  0  0  0  0  0  0  0  0  0
    8.6625    1.0133   24.4989 N   0  3  3  0  0  0  0  0  0  0  0  0
    8.8307    1.0396   21.0789 O   0  0  0  0  0  0  0  0  0  0  0  0
    6.8862    3.1773   23.9235 O   0  0  0  0  0  0  0  0  0  0  0  0
   14.6221   -0.4459   23.4837 Cl  0  0  0  0  0  0  0  0  0  0  0  0
   13.3805   -2.1674   21.0707 Cl  0  0  0  0  0  0  0  0  0  0  0  0
    2.5443    3.3508   20.6368 H   0  0  0  0  0  0  0  0  0  0  0  0
    3.5189    2.1137   22.5166 H   0  0  0  0  0  0  0  0  0  0  0  0
    3.3421    2.9744   18.3363 H   0  0  0  0  0  0  0  0  0  0  0  0
    5.3131    0.4893   22.1569 H   0  0  0  0  0  0  0  0  0  0  0  0
   12.4871    0.6016   24.9808 H   0  0  0  0  0  0  0  0  0  0  0  0
   10.6024   -2.0160   21.2247 H   0  0  0  0  0  0  0  0  0  0  0  0
    4.9151    1.7511   16.7471 H   0  0  0  0  0  0  0  0  0  0  0  0
    7.6455   -0.9765   18.1038 H   0  0  0  0  0  0  0  0  0  0  0  0
    9.7629   -0.1209   25.8243 H   0  0  0  0  0  0  0  0  0  0  0  0
   10.4583    1.4663   25.3693 H   0  0  0  0  0  0  0  0  0  0  0  0
    7.5154   -2.5472   23.3318 H   0  0  0  0  0  0  0  0  0  0  0  0
    8.7613   -2.9067   22.1414 H   0  0  0  0  0  0  0  0  0  0  0  0
    7.0599   -2.7246   20.5712 H   0  0  0  0  0  0  0  0  0  0  0  0
    5.9530   -1.9960   21.7708 H   0  0  0  0  0  0  0  0  0  0  0  0
    6.8969    0.2929   23.5757 H   0  0  0  0  0  0  0  0  0  0  0  0
    7.6784   -0.8489   24.6899 H   0  0  0  0  0  0  0  0  0  0  0  0
    4.6452    4.4887   25.9451 H   0  0  0  0  0  0  0  0  0  0  0  0
    4.4171    3.5406   24.4366 H   0  0  0  0  0  0  0  0  0  0  0  0
    3.6309    3.0064   25.9608 H   0  0  0  0  0  0  0  0  0  0  0  0
    7.4207    0.9331   26.1999 H   0  0  0  0  0  0  0  0  0  0  0  0
    8.5776    2.3057   26.1512 H   0  0  0  0  0  0  0  0  0  0  0  0
    5.6844    2.1543   26.7179 H   0  0  0  0  0  0  0  0  0  0  0  0
    8.7949    1.7234   23.7547 H   0  0  0  0  0  0  0  0  0  0  0  0
  1  2  2  0  0  0  0
  1  3  1  0  0  0  0
  2  4  1  0  0  0  0
  3  9  2  0  0  0  0
  4 10  2  0  0  0  0
  5 11  2  0  0  0  0
  5 14  1  0  0  0  0
  6 12  2  0  0  0  0
  6 15  1  0  0  0  0
  7  9  1  0  0  0  0
  7 25  2  0  0  0  0
  8 13  2  0  0  0  0
  8 25  1  0  0  0  0
  9 10  1  0  0  0  0
 10 13  1  0  0  0  0
 11 12  1  0  0  0  0
 11 18  1  0  0  0  0
 12 22  1  0  0  0  0
 13 26  1  0  0  0  0
 14 15  2  0  0  0  0
 14 31  1  0  0  0  0
 15 32  1  0  0  0  0
 16 22  1  0  0  0  0
 16 26  1  0  0  0  0
 16 29  2  0  0  0  0
 17 24  1  0  0  0  0
 17 27  1  0  0  0  0
 17 30  2  0  0  0  0
 18 28  1  0  0  0  0
 19 20  1  0  0  0  0
 19 22  1  0  0  0  0
 20 26  1  0  0  0  0
 21 22  1  0  0  0  0
 21 28  1  0  0  0  0
 23 27  1  0  0  0  0
 24 28  1  0  0  0  0
  1 33  1  0  0  0  0
  2 34  1  0  0  0  0
  3 35  1  0  0  0  0
  4 36  1  0  0  0  0
  5 37  1  0  0  0  0
  6 38  1  0  0  0  0
  7 39  1  0  0  0  0
  8 40  1  0  0  0  0
 18 41  1  0  0  0  0
 18 42  1  0  0  0  0
 19 43  1  0  0  0  0
 19 44  1  0  0  0  0
 20 45  1  0  0  0  0
 20 46  1  0  0  0  0
 21 47  1  0  0  0  0
 21 48  1  0  0  0  0
 23 49  1  0  0  0  0
 23 50  1  0  0  0  0
 23 51  1  0  0  0  0
 24 52  1  0  0  0  0
 24 53  1  0  0  0  0
 27 54  1  0  0  0  0
 28 55  1  0  0  0  0
M  CHG  1  28   1
M  END
> <scaffold>
tetrahydroisoquinoline-5spiro-isoquinoline

> <compound>
ALP-POS-afe0272e-1

> <compound_smiles>
CNC(=O)CN1Cc2cc(c(cc2C3(C1)CCN(C3=O)c4cncc5c4cccc5)Cl)Cl

> <enantiomer_smiles>
CNC(=O)C[N@]1Cc2cc(c(cc2[C@@]3(C1)CCN(C3=O)c4cncc5c4cccc5)Cl)Cl

> <clash_score>
0

> <docking_score>
3.4028234663852886e+38

> <overlap_score>
0.9818830490112305

> <MMFF_internal_energy>
168.2335802927658

> <docked_smiles>
CNC(=O)C[N@H+]1Cc2cc(c(cc2[C@@]3(C1)CCN(C3=O)c4cncc5c4cccc5)Cl)Cl

$$$$
MAT-POS-50a80394-4_1
  -OEChem-01042202303D

 58 62  0     1  0  0  0  0  0999 V2000
    3.3444    2.6278   20.4409 C   0  0  0  0  0  0  0  0  0  0  0  0
    3.8974    1.9290   21.5048 C   0  0  0  0  0  0  0  0  0  0  0  0
    3.7877    2.4205   19.1658 C   0  0  0  0  0  0  0  0  0  0  0  0
    4.8986    1.0232   21.2985 C   0  0  0  0  0  0  0  0  0  0  0  0
   12.0781    0.0316   24.1532 C   0  0  0  0  0  0  0  0  0  0  0  0
   12.9147   -0.6032   23.2559 C   0  0  0  0  0  0  0  0  0  0  0  0
   11.0005   -1.4332   22.0435 C   0  0  0  0  0  0  0  0  0  0  0  0
    5.3288    1.2339   17.6062 C   0  0  0  0  0  0  0  0  0  0  0  0
    6.8449   -0.2893   18.3747 C   0  0  0  0  0  0  0  0  0  0  0  0
    4.8238    1.4906   18.9051 C   0  0  0  0  0  0  0  0  0  0  0  0
    5.3995    0.7732   19.9944 C   0  0  0  0  0  0  0  0  0  0  0  0
   10.7056   -0.0626   23.9890 C   0  0  0  0  0  0  0  0  0  0  0  0
   10.1421   -0.7766   22.9242 C   0  0  0  0  0  0  0  0  0  0  0  0
    6.4452   -0.1472   19.6975 C   0  0  0  0  0  0  0  0  0  0  0  0
   12.3697   -1.3298   22.2224 C   0  0  0  0  0  0  0  0  0  0  0  0
    8.2504    0.0168   21.4265 C   0  0  0  0  0  0  0  0  0  0  0  0
    6.8057    2.5964   24.9607 C   0  0  0  0  0  0  0  0  0  0  0  0
    9.9496    0.5589   24.9527 C   0  0  0  0  0  0  0  0  0  0  0  0
    6.9880   -1.9367   21.3575 C   0  0  0  0  0  0  0  0  0  0  0  0
    7.8737   -0.1194   23.8825 C   0  0  0  0  0  0  0  0  0  0  0  0
    8.0155   -2.1541   22.4325 C   0  0  2  0  0  0  0  0  0  0  0  0
    8.6253   -0.7606   22.6923 C   0  0  3  0  0  0  0  0  0  0  0  0
    8.9809   -3.2908   22.0765 C   0  0  0  0  0  0  0  0  0  0  0  0
    4.5259    3.4642   25.3927 C   0  0  0  0  0  0  0  0  0  0  0  0
    7.8612    1.7113   25.5747 C   0  0  0  0  0  0  0  0  0  0  0  0
    6.3072    0.3768   17.3417 N   0  0  0  0  0  0  0  0  0  0  0  0
    7.2305   -0.6898   20.7785 N   0  0  0  0  0  0  0  0  0  0  0  0
    5.6770    2.6755   25.7625 N   0  0  0  0  0  0  0  0  0  0  0  0
    8.6625    1.0133   24.4989 N   0  3  3  0  0  0  0  0  0  0  0  0
    8.8288    1.0390   21.0729 O   0  0  0  0  0  0  0  0  0  0  0  0
    6.9488    3.1682   23.8833 O   0  0  0  0  0  0  0  0  0  0  0  0
   13.4292   -2.1458   21.1116 Cl  0  0  0  0  0  0  0  0  0  0  0  0
    2.5443    3.3508   20.6368 H   0  0  0  0  0  0  0  0  0  0  0  0
    3.5189    2.1137   22.5166 H   0  0  0  0  0  0  0  0  0  0  0  0
    3.3421    2.9744   18.3363 H   0  0  0  0  0  0  0  0  0  0  0  0
    5.3131    0.4893   22.1569 H   0  0  0  0  0  0  0  0  0  0  0  0
   12.5044    0.5937   24.9756 H   0  0  0  0  0  0  0  0  0  0  0  0
   13.9928   -0.5224   23.3815 H   0  0  0  0  0  0  0  0  0  0  0  0
   10.6078   -2.0227   21.2282 H   0  0  0  0  0  0  0  0  0  0  0  0
    4.9151    1.7511   16.7471 H   0  0  0  0  0  0  0  0  0  0  0  0
    7.6455   -0.9765   18.1038 H   0  0  0  0  0  0  0  0  0  0  0  0
    9.7643   -0.1183   25.8279 H   0  0  0  0  0  0  0  0  0  0  0  0
   10.4585    1.4673   25.3688 H   0  0  0  0  0  0  0  0  0  0  0  0
    7.0385   -2.7203   20.5611 H   0  0  0  0  0  0  0  0  0  0  0  0
    5.9508   -1.9854   21.7738 H   0  0  0  0  0  0  0  0  0  0  0  0
    6.8983    0.2871   23.5839 H   0  0  0  0  0  0  0  0  0  0  0  0
    7.6938   -0.8432   24.6916 H   0  0  0  0  0  0  0  0  0  0  0  0
    7.4749   -2.5001   23.3350 H   0  0  0  0  0  0  0  0  0  0  0  0
    9.5567   -3.0187   21.1910 H   0  0  0  0  0  0  0  0  0  0  0  0
    8.4246   -4.2053   21.8675 H   0  0  0  0  0  0  0  0  0  0  0  0
    9.6699   -3.4781   22.9010 H   0  0  0  0  0  0  0  0  0  0  0  0
    4.6249    4.4768   25.8109 H   0  0  0  0  0  0  0  0  0  0  0  0
    4.4602    3.5251   24.2964 H   0  0  0  0  0  0  0  0  0  0  0  0
    3.6151    2.9915   25.7889 H   0  0  0  0  0  0  0  0  0  0  0  0
    7.3983    0.9299   26.1838 H   0  0  0  0  0  0  0  0  0  0  0  0
    8.5522    2.3059   26.1787 H   0  0  0  0  0  0  0  0  0  0  0  0
    5.6391    2.1470   26.6294 H   0  0  0  0  0  0  0  0  0  0  0  0
    8.8006    1.7249   23.7624 H   0  0  0  0  0  0  0  0  0  0  0  0
  1  2  2  0  0  0  0
  1  3  1  0  0  0  0
  2  4  1  0  0  0  0
  3 10  2  0  0  0  0
  4 11  2  0  0  0  0
  5  6  2  0  0  0  0
  5 12  1  0  0  0  0
  6 15  1  0  0  0  0
  7 13  1  0  0  0  0
  7 15  2  0  0  0  0
  8 10  1  0  0  0  0
  8 26  2  0  0  0  0
  9 14  2  0  0  0  0
  9 26  1  0  0  0  0
 10 11  1  0  0  0  0
 11 14  1  0  0  0  0
 12 13  2  0  0  0  0
 12 18  1  0  0  0  0
 13 22  1  0  0  0  0
 14 27  1  0  0  0  0
 15 32  1  0  0  0  0
 16 22  1  0  0  0  0
 16 27  1  0  0  0  0
 16 30  2  0  0  0  0
 17 25  1  0  0  0  0
 17 28  1  0  0  0  0
 17 31  2  0  0  0  0
 18 29  1  0  0  0  0
 19 21  1  0  0  0  0
 19 27  1  0  0  0  0
 20 22  1  0  0  0  0
 20 29  1  0  0  0  0
 21 22  1  0  0  0  0
 21 23  1  1  0  0  0
 24 28  1  0  0  0  0
 25 29  1  0  0  0  0
  1 33  1  0  0  0  0
  2 34  1  0  0  0  0
  3 35  1  0  0  0  0
  4 36  1  0  0  0  0
  5 37  1  0  0  0  0
  6 38  1  0  0  0  0
  7 39  1  0  0  0  0
  8 40  1  0  0  0  0
  9 41  1  0  0  0  0
 18 42  1  0  0  0  0
 18 43  1  0  0  0  0
 19 44  1  0  0  0  0
 19 45  1  0  0  0  0
 20 46  1  0  0  0  0
 20 47  1  0  0  0  0
 21 48  1  0  0  0  0
 23 49  1  0  0  0  0
 23 50  1  0  0  0  0
 23 51  1  0  0  0  0
 24 52  1  0  0  0  0
 24 53  1  0  0  0  0
 24 54  1  0  0  0  0
 25 55  1  0  0  0  0
 25 56  1  0  0  0  0
 28 57  1  0  0  0  0
 29 58  1  0  0  0  0
M  CHG  1  29   1
M  END
> <scaffold>
tetrahydroisoquinoline-5spiro-isoquinoline

> <compound>
MAT-POS-50a80394-4

> <compound_smiles>
CC1CN(C(=O)C12CN(Cc3c2cc(cc3)Cl)CC(=O)NC)c4cncc5c4cccc5

> <enantiomer_smiles>
C[C@@H]1CN(C(=O)[C@]12C[N@](Cc3c2cc(cc3)Cl)CC(=O)NC)c4cncc5c4cccc5

> <clash_score>
0

> <docking_score>
3.4028234663852886e+38

> <overlap_score>
0.9852486252784729

> <MMFF_internal_energy>
186.71123341592076

> <docked_smiles>
C[C@@H]1CN(C(=O)[C@]12C[N@H+](Cc3c2cc(cc3)Cl)CC(=O)NC)c4cncc5c4cccc5

$$$$
PET-UNK-aa57768f-1_1
  -OEChem-01042202303D

 51 56  0     1  0  0  0  0  0999 V2000
    3.3444    2.6278   20.4409 C   0  0  0  0  0  0  0  0  0  0  0  0
    3.8974    1.9290   21.5048 C   0  0  0  0  0  0  0  0  0  0  0  0
    3.7877    2.4205   19.1658 C   0  0  0  0  0  0  0  0  0  0  0  0
    4.8986    1.0232   21.2985 C   0  0  0  0  0  0  0  0  0  0  0  0
   12.0781    0.0316   24.1532 C   0  0  0  0  0  0  0  0  0  0  0  0
   12.9147   -0.6032   23.2559 C   0  0  0  0  0  0  0  0  0  0  0  0
   11.0005   -1.4332   22.0435 C   0  0  0  0  0  0  0  0  0  0  0  0
    5.3288    1.2339   17.6062 C   0  0  0  0  0  0  0  0  0  0  0  0
    6.8449   -0.2893   18.3747 C   0  0  0  0  0  0  0  0  0  0  0  0
    6.4962    3.0360   27.8029 C   0  0  0  0  0  0  0  0  0  0  0  0
    4.8238    1.4906   18.9051 C   0  0  0  0  0  0  0  0  0  0  0  0
    5.3995    0.7732   19.9944 C   0  0  0  0  0  0  0  0  0  0  0  0
   10.7056   -0.0626   23.9890 C   0  0  0  0  0  0  0  0  0  0  0  0
   10.1421   -0.7766   22.9242 C   0  0  0  0  0  0  0  0  0  0  0  0
    6.4452   -0.1472   19.6975 C   0  0  0  0  0  0  0  0  0  0  0  0
   12.3697   -1.3298   22.2224 C   0  0  0  0  0  0  0  0  0  0  0  0
    7.3127    2.2213   26.0463 C   0  0  0  0  0  0  0  0  0  0  0  0
    9.9496    0.5589   24.9527 C   0  0  0  0  0  0  0  0  0  0  0  0
    8.2504    0.0168   21.4265 C   0  0  0  0  0  0  0  0  0  0  0  0
    8.0155   -2.1541   22.4325 C   0  0  0  0  0  0  0  0  0  0  0  0
    6.9880   -1.9367   21.3575 C   0  0  0  0  0  0  0  0  0  0  0  0
    7.8737   -0.1194   23.8825 C   0  0  0  0  0  0  0  0  0  0  0  0
    8.6253   -0.7606   22.6923 C   0  0  1  0  0  0  0  0  0  0  0  0
    8.0937    2.2235   24.7641 C   0  0  0  0  0  0  0  0  0  0  0  0
    6.3072    0.3768   17.3417 N   0  0  0  0  0  0  0  0  0  0  0  0
    6.1197    1.7788   27.7809 N   0  0  0  0  0  0  0  0  0  0  0  0
    6.6570    1.2428   26.6254 N   0  0  0  0  0  0  0  0  0  0  0  0
    7.2305   -0.6898   20.7785 N   0  0  0  0  0  0  0  0  0  0  0  0
    8.6625    1.0133   24.4989 N   0  0  0  0  0  0  0  0  0  0  0  0
   10.3233    0.7301   26.1084 O   0  0  0  0  0  0  0  0  0  0  0  0
    8.8205    1.0412   21.0776 O   0  0  0  0  0  0  0  0  0  0  0  0
    7.2583    3.3948   26.7337 O   0  0  0  0  0  0  0  0  0  0  0  0
   13.4288   -2.1465   21.1124 Cl  0  0  0  0  0  0  0  0  0  0  0  0
    2.5443    3.3508   20.6368 H   0  0  0  0  0  0  0  0  0  0  0  0
    3.5189    2.1137   22.5166 H   0  0  0  0  0  0  0  0  0  0  0  0
    3.3421    2.9744   18.3363 H   0  0  0  0  0  0  0  0  0  0  0  0
    5.3131    0.4893   22.1569 H   0  0  0  0  0  0  0  0  0  0  0  0
   12.5188    0.5961   24.9710 H   0  0  0  0  0  0  0  0  0  0  0  0
   13.9920   -0.5226   23.3817 H   0  0  0  0  0  0  0  0  0  0  0  0
   10.6143   -2.0253   21.2266 H   0  0  0  0  0  0  0  0  0  0  0  0
    4.9151    1.7511   16.7471 H   0  0  0  0  0  0  0  0  0  0  0  0
    7.6455   -0.9765   18.1038 H   0  0  0  0  0  0  0  0  0  0  0  0
    6.2848    3.7968   28.5377 H   0  0  0  0  0  0  0  0  0  0  0  0
    7.5128   -2.5277   23.3386 H   0  0  0  0  0  0  0  0  0  0  0  0
    8.7593   -2.9102   22.1430 H   0  0  0  0  0  0  0  0  0  0  0  0
    7.0602   -2.7255   20.5716 H   0  0  0  0  0  0  0  0  0  0  0  0
    5.9526   -1.9964   21.7706 H   0  0  0  0  0  0  0  0  0  0  0  0
    6.9217    0.3182   23.5732 H   0  0  0  0  0  0  0  0  0  0  0  0
    7.6678   -0.8543   24.6617 H   0  0  0  0  0  0  0  0  0  0  0  0
    7.4480    2.4865   23.9191 H   0  0  0  0  0  0  0  0  0  0  0  0
    8.9021    2.9615   24.7977 H   0  0  0  0  0  0  0  0  0  0  0  0
  1  2  2  0  0  0  0
  1  3  1  0  0  0  0
  2  4  1  0  0  0  0
  3 11  2  0  0  0  0
  4 12  2  0  0  0  0
  5  6  2  0  0  0  0
  5 13  1  0  0  0  0
  6 16  1  0  0  0  0
  7 14  1  0  0  0  0
  7 16  2  0  0  0  0
  8 11  1  0  0  0  0
  8 25  2  0  0  0  0
  9 15  2  0  0  0  0
  9 25  1  0  0  0  0
 10 26  2  0  0  0  0
 10 32  1  0  0  0  0
 11 12  1  0  0  0  0
 12 15  1  0  0  0  0
 13 14  2  0  0  0  0
 13 18  1  0  0  0  0
 14 23  1  6  0  0  0
 15 28  1  0  0  0  0
 16 33  1  0  0  0  0
 17 24  1  0  0  0  0
 17 27  2  0  0  0  0
 17 32  1  0  0  0  0
 18 29  1  0  0  0  0
 18 30  2  0  0  0  0
 19 23  1  1  0  0  0
 19 28  1  0  0  0  0
 19 31  2  0  0  0  0
 20 21  1  0  0  0  0
 20 23  1  1  0  0  0
 21 28  1  0  0  0  0
 22 23  1  6  0  0  0
 22 29  1  0  0  0  0
 24 29  1  0  0  0  0
 26 27  1  0  0  0  0
  1 34  1  0  0  0  0
  2 35  1  0  0  0  0
  3 36  1  0  0  0  0
  4 37  1  0  0  0  0
  5 38  1  0  0  0  0
  6 39  1  0  0  0  0
  7 40  1  0  0  0  0
  8 41  1  0  0  0  0
  9 42  1  0  0  0  0
 10 43  1  0  0  0  0
 20 44  1  0  0  0  0
 20 45  1  0  0  0  0
 21 46  1  0  0  0  0
 21 47  1  0  0  0  0
 22 48  1  0  0  0  0
 22 49  1  0  0  0  0
 24 50  1  0  0  0  0
 24 51  1  0  0  0  0
M  END
> <scaffold>
tetrahydroisoquinoline-5spiro-isoquinoline

> <compound>
PET-UNK-aa57768f-1

> <compound_smiles>
c1ccc2c(c1)cncc2N3CC[C@@]4(C3=O)CN(C(=O)c5c4cc(cc5)Cl)Cc6nnco6

> <enantiomer_smiles>
c1ccc2c(c1)cncc2N3CC[C@@]4(C3=O)CN(C(=O)c5c4cc(cc5)Cl)Cc6nnco6

> <clash_score>
0

> <docking_score>
3.4028234663852886e+38

> <overlap_score>
0.9861321449279785

> <MMFF_internal_energy>
164.16142083435628

> <docked_smiles>
c1ccc2c(c1)cncc2N3CC[C@@]4(C3=O)CN(C(=O)c5c4cc(cc5)Cl)Cc6nnco6

$$$$
MAT-POS-96396902-1_1
  -OEChem-01042202303D

 53 58  0     1  0  0  0  0  0999 V2000
    3.3444    2.6278   20.4409 C   0  0  0  0  0  0  0  0  0  0  0  0
    3.8974    1.9290   21.5048 C   0  0  0  0  0  0  0  0  0  0  0  0
    3.7877    2.4205   19.1658 C   0  0  0  0  0  0  0  0  0  0  0  0
    4.8986    1.0232   21.2985 C   0  0  0  0  0  0  0  0  0  0  0  0
   12.0781    0.0316   24.1532 C   0  0  0  0  0  0  0  0  0  0  0  0
   12.9147   -0.6032   23.2559 C   0  0  0  0  0  0  0  0  0  0  0  0
   11.0005   -1.4332   22.0435 C   0  0  0  0  0  0  0  0  0  0  0  0
    5.3288    1.2339   17.6062 C   0  0  0  0  0  0  0  0  0  0  0  0
    6.8449   -0.2893   18.3747 C   0  0  0  0  0  0  0  0  0  0  0  0
    4.8419    3.8549   24.5721 C   0  0  0  0  0  0  0  0  0  0  0  0
    4.8238    1.4906   18.9051 C   0  0  0  0  0  0  0  0  0  0  0  0
    5.3995    0.7732   19.9944 C   0  0  0  0  0  0  0  0  0  0  0  0
   10.7056   -0.0626   23.9890 C   0  0  0  0  0  0  0  0  0  0  0  0
   10.1421   -0.7766   22.9242 C   0  0  0  0  0  0  0  0  0  0  0  0
    6.4452   -0.1472   19.6975 C   0  0  0  0  0  0  0  0  0  0  0  0
   12.3697   -1.3298   22.2224 C   0  0  0  0  0  0  0  0  0  0  0  0
    6.7918    2.5984   25.0033 C   0  0  0  0  0  0  0  0  0  0  0  0
    8.2504    0.0168   21.4265 C   0  0  0  0  0  0  0  0  0  0  0  0
    9.9496    0.5589   24.9527 C   0  0  0  0  0  0  0  0  0  0  0  0
    8.0155   -2.1541   22.4325 C   0  0  0  0  0  0  0  0  0  0  0  0
    6.9880   -1.9367   21.3575 C   0  0  0  0  0  0  0  0  0  0  0  0
    7.8737   -0.1194   23.8825 C   0  0  0  0  0  0  0  0  0  0  0  0
    8.6253   -0.7606   22.6923 C   0  0  3  0  0  0  0  0  0  0  0  0
    7.8612    1.7144   25.5743 C   0  0  0  0  0  0  0  0  0  0  0  0
    6.3072    0.3768   17.3417 N   0  0  0  0  0  0  0  0  0  0  0  0
    5.7199    3.9673   23.5982 N   0  0  0  0  0  0  0  0  0  0  0  0
    6.8632    3.2295   23.8507 N   0  0  0  0  0  0  0  0  0  0  0  0
    7.2305   -0.6898   20.7785 N   0  0  0  0  0  0  0  0  0  0  0  0
    8.6625    1.0133   24.4989 N   0  3  3  0  0  0  0  0  0  0  0  0
    8.8307    1.0396   21.0789 O   0  0  0  0  0  0  0  0  0  0  0  0
    5.3338    2.8486   25.8710 S   0  0  0  0  0  0  0  0  0  0  0  0
   13.4286   -2.1403   21.1072 Cl  0  0  0  0  0  0  0  0  0  0  0  0
    2.5443    3.3508   20.6368 H   0  0  0  0  0  0  0  0  0  0  0  0
    3.5189    2.1137   22.5166 H   0  0  0  0  0  0  0  0  0  0  0  0
    3.3421    2.9744   18.3363 H   0  0  0  0  0  0  0  0  0  0  0  0
    5.3131    0.4893   22.1569 H   0  0  0  0  0  0  0  0  0  0  0  0
   12.5040    0.5973   24.9741 H   0  0  0  0  0  0  0  0  0  0  0  0
   13.9926   -0.5176   23.3780 H   0  0  0  0  0  0  0  0  0  0  0  0
   10.6057   -2.0168   21.2239 H   0  0  0  0  0  0  0  0  0  0  0  0
    4.9151    1.7511   16.7471 H   0  0  0  0  0  0  0  0  0  0  0  0
    7.6455   -0.9765   18.1038 H   0  0  0  0  0  0  0  0  0  0  0  0
    3.8851    4.3573   24.5564 H   0  0  0  0  0  0  0  0  0  0  0  0
    9.7630   -0.1207   25.8244 H   0  0  0  0  0  0  0  0  0  0  0  0
   10.4585    1.4662   25.3691 H   0  0  0  0  0  0  0  0  0  0  0  0
    7.5159   -2.5477   23.3319 H   0  0  0  0  0  0  0  0  0  0  0  0
    8.7613   -2.9061   22.1409 H   0  0  0  0  0  0  0  0  0  0  0  0
    7.0594   -2.7244   20.5709 H   0  0  0  0  0  0  0  0  0  0  0  0
    5.9531   -1.9957   21.7710 H   0  0  0  0  0  0  0  0  0  0  0  0
    6.8972    0.2930   23.5750 H   0  0  0  0  0  0  0  0  0  0  0  0
    7.6778   -0.8486   24.6901 H   0  0  0  0  0  0  0  0  0  0  0  0
    8.5605    2.2876   26.1923 H   0  0  0  0  0  0  0  0  0  0  0  0
    7.4300    0.9266   26.2014 H   0  0  0  0  0  0  0  0  0  0  0  0
    8.7953    1.7233   23.7550 H   0  0  0  0  0  0  0  0  0  0  0  0
  1  2  2  0  0  0  0
  1  3  1  0  0  0  0
  2  4  1  0  0  0  0
  3 11  2  0  0  0  0
  4 12  2  0  0  0  0
  5  6  2  0  0  0  0
  5 13  1  0  0  0  0
  6 16  1  0  0  0  0
  7 14  1  0  0  0  0
  7 16  2  0  0  0  0
  8 11  1  0  0  0  0
  8 25  2  0  0  0  0
  9 15  2  0  0  0  0
  9 25  1  0  0  0  0
 10 26  2  0  0  0  0
 10 31  1  0  0  0  0
 11 12  1  0  0  0  0
 12 15  1  0  0  0  0
 13 14  2  0  0  0  0
 13 19  1  0  0  0  0
 14 23  1  0  0  0  0
 15 28  1  0  0  0  0
 16 32  1  0  0  0  0
 17 24  1  0  0  0  0
 17 27  2  0  0  0  0
 17 31  1  0  0  0  0
 18 23  1  0  0  0  0
 18 28  1  0  0  0  0
 18 30  2  0  0  0  0
 19 29  1  0  0  0  0
 20 21  1  0  0  0  0
 20 23  1  0  0  0  0
 21 28  1  0  0  0  0
 22 23  1  0  0  0  0
 22 29  1  0  0  0  0
 24 29  1  0  0  0  0
 26 27  1  0  0  0  0
  1 33  1  0  0  0  0
  2 34  1  0  0  0  0
  3 35  1  0  0  0  0
  4 36  1  0  0  0  0
  5 37  1  0  0  0  0
  6 38  1  0  0  0  0
  7 39  1  0  0  0  0
  8 40  1  0  0  0  0
  9 41  1  0  0  0  0
 10 42  1  0  0  0  0
 19 43  1  0  0  0  0
 19 44  1  0  0  0  0
 20 45  1  0  0  0  0
 20 46  1  0  0  0  0
 21 47  1  0  0  0  0
 21 48  1  0  0  0  0
 22 49  1  0  0  0  0
 22 50  1  0  0  0  0
 24 51  1  0  0  0  0
 24 52  1  0  0  0  0
 29 53  1  0  0  0  0
M  CHG  1  29   1
M  END
> <scaffold>
tetrahydroisoquinoline-5spiro-isoquinoline

> <compound>
MAT-POS-96396902-1

> <compound_smiles>
c1ccc2c(c1)cncc2N3CCC4(C3=O)CN(Cc5c4cc(cc5)Cl)Cc6nncs6

> <enantiomer_smiles>
c1ccc2c(c1)cncc2N3CC[C@]4(C3=O)C[N@](Cc5c4cc(cc5)Cl)Cc6nncs6

> <clash_score>
0

> <docking_score>
3.4028234663852886e+38

> <overlap_score>
0.9749892950057983

> <MMFF_internal_energy>
142.43009334280023

> <docked_smiles>
c1ccc2c(c1)cncc2N3CC[C@]4(C3=O)C[N@H+](Cc5c4cc(cc5)Cl)Cc6nncs6

$$$$
JOH-MSK-1f2dff76-1_1
  -OEChem-01042202303D

 54 58  0     1  0  0  0  0  0999 V2000
    3.3444    2.6278   20.4409 C   0  0  0  0  0  0  0  0  0  0  0  0
    3.8974    1.9290   21.5048 C   0  0  0  0  0  0  0  0  0  0  0  0
    3.7877    2.4205   19.1658 C   0  0  0  0  0  0  0  0  0  0  0  0
    4.8986    1.0232   21.2985 C   0  0  0  0  0  0  0  0  0  0  0  0
   12.0781    0.0316   24.1532 C   0  0  0  0  0  0  0  0  0  0  0  0
   12.9147   -0.6032   23.2559 C   0  0  0  0  0  0  0  0  0  0  0  0
   11.0005   -1.4332   22.0435 C   0  0  0  0  0  0  0  0  0  0  0  0
    5.3288    1.2339   17.6062 C   0  0  0  0  0  0  0  0  0  0  0  0
    6.8449   -0.2893   18.3747 C   0  0  0  0  0  0  0  0  0  0  0  0
    4.8238    1.4906   18.9051 C   0  0  0  0  0  0  0  0  0  0  0  0
    5.3995    0.7732   19.9944 C   0  0  0  0  0  0  0  0  0  0  0  0
   10.7056   -0.0626   23.9890 C   0  0  0  0  0  0  0  0  0  0  0  0
   10.1421   -0.7766   22.9242 C   0  0  0  0  0  0  0  0  0  0  0  0
    6.4452   -0.1472   19.6975 C   0  0  0  0  0  0  0  0  0  0  0  0
   12.3697   -1.3298   22.2224 C   0  0  0  0  0  0  0  0  0  0  0  0
    6.9880   -1.9367   21.3575 C   0  0  0  0  0  0  0  0  0  0  0  0
    8.2504    0.0168   21.4265 C   0  0  0  0  0  0  0  0  0  0  0  0
    8.9513    3.4981   24.2976 C   0  0  0  0  0  0  0  0  0  0  0  0
    9.9496    0.5589   24.9527 C   0  0  0  0  0  0  0  0  0  0  0  0
    8.0155   -2.1541   22.4325 C   0  0  0  0  0  0  0  0  0  0  0  0
    7.8737   -0.1194   23.8825 C   0  0  0  0  0  0  0  0  0  0  0  0
    8.6253   -0.7606   22.6923 C   0  0  1  0  0  0  0  0  0  0  0  0
    9.2663    5.9201   23.8828 C   0  0  0  0  0  0  0  0  0  0  0  0
    8.7413    2.1984   23.5622 C   0  0  0  0  0  0  0  0  0  0  0  0
    6.3072    0.3768   17.3417 N   0  0  0  0  0  0  0  0  0  0  0  0
    7.2305   -0.6898   20.7785 N   0  0  0  0  0  0  0  0  0  0  0  0
    9.0620    4.5676   23.4217 N   0  0  0  0  0  0  0  0  0  0  0  0
    8.6625    1.0133   24.4989 N   0  3  3  0  0  0  0  0  0  0  0  0
    6.1188   -2.7567   21.1098 O   0  0  0  0  0  0  0  0  0  0  0  0
    8.7914    1.0561   21.0966 O   0  0  0  0  0  0  0  0  0  0  0  0
    9.0123    3.5778   25.5216 O   0  0  0  0  0  0  0  0  0  0  0  0
   13.4296   -2.1445   21.1113 Cl  0  0  0  0  0  0  0  0  0  0  0  0
    2.5443    3.3508   20.6368 H   0  0  0  0  0  0  0  0  0  0  0  0
    3.5189    2.1137   22.5166 H   0  0  0  0  0  0  0  0  0  0  0  0
    3.3421    2.9744   18.3363 H   0  0  0  0  0  0  0  0  0  0  0  0
    5.3131    0.4893   22.1569 H   0  0  0  0  0  0  0  0  0  0  0  0
   12.5048    0.5918   24.9771 H   0  0  0  0  0  0  0  0  0  0  0  0
   13.9929   -0.5219   23.3815 H   0  0  0  0  0  0  0  0  0  0  0  0
   10.6149   -2.0225   21.2265 H   0  0  0  0  0  0  0  0  0  0  0  0
    4.9151    1.7511   16.7471 H   0  0  0  0  0  0  0  0  0  0  0  0
    7.6455   -0.9765   18.1038 H   0  0  0  0  0  0  0  0  0  0  0  0
    9.7388   -0.1148   25.8240 H   0  0  0  0  0  0  0  0  0  0  0  0
   10.4784    1.4538   25.3751 H   0  0  0  0  0  0  0  0  0  0  0  0
    7.5546   -2.5990   23.3174 H   0  0  0  0  0  0  0  0  0  0  0  0
    8.7510   -2.8591   22.0307 H   0  0  0  0  0  0  0  0  0  0  0  0
    6.9018    0.3015   23.5753 H   0  0  0  0  0  0  0  0  0  0  0  0
    7.6947   -0.8554   24.6826 H   0  0  0  0  0  0  0  0  0  0  0  0
    8.2924    6.4138   24.0158 H   0  0  0  0  0  0  0  0  0  0  0  0
    9.8027    5.9029   24.8430 H   0  0  0  0  0  0  0  0  0  0  0  0
    9.8600    6.4745   23.1411 H   0  0  0  0  0  0  0  0  0  0  0  0
    9.5819    1.9978   22.8921 H   0  0  0  0  0  0  0  0  0  0  0  0
    7.8040    2.2266   22.9996 H   0  0  0  0  0  0  0  0  0  0  0  0
    9.0226    4.4021   22.4200 H   0  0  0  0  0  0  0  0  0  0  0  0
    8.1101    1.3444   25.3123 H   0  0  0  0  0  0  0  0  0  0  0  0
  1  2  2  0  0  0  0
  1  3  1  0  0  0  0
  2  4  1  0  0  0  0
  3 10  2  0  0  0  0
  4 11  2  0  0  0  0
  5  6  2  0  0  0  0
  5 12  1  0  0  0  0
  6 15  1  0  0  0  0
  7 13  1  0  0  0  0
  7 15  2  0  0  0  0
  8 10  1  0  0  0  0
  8 25  2  0  0  0  0
  9 14  2  0  0  0  0
  9 25  1  0  0  0  0
 10 11  1  0  0  0  0
 11 14  1  0  0  0  0
 12 13  2  0  0  0  0
 12 19  1  0  0  0  0
 13 22  1  1  0  0  0
 14 26  1  0  0  0  0
 15 32  1  0  0  0  0
 16 20  1  0  0  0  0
 16 26  1  0  0  0  0
 16 29  2  0  0  0  0
 17 22  1  6  0  0  0
 17 26  1  0  0  0  0
 17 30  2  0  0  0  0
 18 24  1  0  0  0  0
 18 27  1  0  0  0  0
 18 31  2  0  0  0  0
 19 28  1  0  0  0  0
 20 22  1  6  0  0  0
 21 22  1  1  0  0  0
 21 28  1  0  0  0  0
 23 27  1  0  0  0  0
 24 28  1  0  0  0  0
  1 33  1  0  0  0  0
  2 34  1  0  0  0  0
  3 35  1  0  0  0  0
  4 36  1  0  0  0  0
  5 37  1  0  0  0  0
  6 38  1  0  0  0  0
  7 39  1  0  0  0  0
  8 40  1  0  0  0  0
  9 41  1  0  0  0  0
 19 42  1  0  0  0  0
 19 43  1  0  0  0  0
 20 44  1  0  0  0  0
 20 45  1  0  0  0  0
 21 46  1  0  0  0  0
 21 47  1  0  0  0  0
 23 48  1  0  0  0  0
 23 49  1  0  0  0  0
 23 50  1  0  0  0  0
 24 51  1  0  0  0  0
 24 52  1  0  0  0  0
 27 53  1  0  0  0  0
 28 54  1  0  0  0  0
M  CHG  1  28   1
M  END
> <scaffold>
tetrahydroisoquinoline-5spiro-isoquinoline

> <compound>
JOH-MSK-1f2dff76-1

> <compound_smiles>
CNC(=O)CN1Cc2ccc(cc2[C@@]3(C1)CC(=O)N(C3=O)c4cncc5c4cccc5)Cl

> <enantiomer_smiles>
CNC(=O)C[N@]1Cc2ccc(cc2[C@@]3(C1)CC(=O)N(C3=O)c4cncc5c4cccc5)Cl

> <clash_score>
0

> <docking_score>
3.4028234663852886e+38

> <overlap_score>
1.0

> <MMFF_internal_energy>
125.10636333848213

> <docked_smiles>
CNC(=O)C[N@@H+]1Cc2ccc(cc2[C@@]3(C1)CC(=O)N(C3=O)c4cncc5c4cccc5)Cl

$$$$
MAT-POS-50a80394-4_2
  -OEChem-01042202303D

 58 62  0     1  0  0  0  0  0999 V2000
    3.3444    2.6278   20.4409 C   0  0  0  0  0  0  0  0  0  0  0  0
    3.8974    1.9290   21.5048 C   0  0  0  0  0  0  0  0  0  0  0  0
    3.7877    2.4205   19.1658 C   0  0  0  0  0  0  0  0  0  0  0  0
    4.8986    1.0232   21.2985 C   0  0  0  0  0  0  0  0  0  0  0  0
   12.0781    0.0316   24.1532 C   0  0  0  0  0  0  0  0  0  0  0  0
   12.9147   -0.6032   23.2559 C   0  0  0  0  0  0  0  0  0  0  0  0
   11.0005   -1.4332   22.0435 C   0  0  0  0  0  0  0  0  0  0  0  0
    5.3288    1.2339   17.6062 C   0  0  0  0  0  0  0  0  0  0  0  0
    6.8449   -0.2893   18.3747 C   0  0  0  0  0  0  0  0  0  0  0  0
    4.8238    1.4906   18.9051 C   0  0  0  0  0  0  0  0  0  0  0  0
    5.3995    0.7732   19.9944 C   0  0  0  0  0  0  0  0  0  0  0  0
   10.7056   -0.0626   23.9890 C   0  0  0  0  0  0  0  0  0  0  0  0
   10.1421   -0.7766   22.9242 C   0  0  0  0  0  0  0  0  0  0  0  0
    6.4452   -0.1472   19.6975 C   0  0  0  0  0  0  0  0  0  0  0  0
   12.3697   -1.3298   22.2224 C   0  0  0  0  0  0  0  0  0  0  0  0
    8.2504    0.0168   21.4265 C   0  0  0  0  0  0  0  0  0  0  0  0
    8.9714    3.4739   24.3229 C   0  0  0  0  0  0  0  0  0  0  0  0
    9.9496    0.5589   24.9527 C   0  0  0  0  0  0  0  0  0  0  0  0
    6.9880   -1.9367   21.3575 C   0  0  0  0  0  0  0  0  0  0  0  0
    7.8737   -0.1194   23.8825 C   0  0  0  0  0  0  0  0  0  0  0  0
    8.0155   -2.1541   22.4325 C   0  0  1  0  0  0  0  0  0  0  0  0
    8.6253   -0.7606   22.6923 C   0  0  3  0  0  0  0  0  0  0  0  0
    7.4313   -2.9038   23.6356 C   0  0  0  0  0  0  0  0  0  0  0  0
   10.0771    5.6801   24.1045 C   0  0  0  0  0  0  0  0  0  0  0  0
    8.7425    2.1944   23.5582 C   0  0  0  0  0  0  0  0  0  0  0  0
    6.3072    0.3768   17.3417 N   0  0  0  0  0  0  0  0  0  0  0  0
    7.2305   -0.6898   20.7785 N   0  0  0  0  0  0  0  0  0  0  0  0
    9.7242    4.3786   23.5893 N   0  0  0  0  0  0  0  0  0  0  0  0
    8.6625    1.0133   24.4989 N   0  3  3  0  0  0  0  0  0  0  0  0
    8.7545    1.0948   21.1291 O   0  0  0  0  0  0  0  0  0  0  0  0
    8.5352    3.6705   25.4539 O   0  0  0  0  0  0  0  0  0  0  0  0
   13.4290   -2.1383   21.1061 Cl  0  0  0  0  0  0  0  0  0  0  0  0
    2.5443    3.3508   20.6368 H   0  0  0  0  0  0  0  0  0  0  0  0
    3.5189    2.1137   22.5166 H   0  0  0  0  0  0  0  0  0  0  0  0
    3.3421    2.9744   18.3363 H   0  0  0  0  0  0  0  0  0  0  0  0
    5.3131    0.4893   22.1569 H   0  0  0  0  0  0  0  0  0  0  0  0
   12.5039    0.5968   24.9735 H   0  0  0  0  0  0  0  0  0  0  0  0
   13.9929   -0.5171   23.3772 H   0  0  0  0  0  0  0  0  0  0  0  0
   10.6081   -2.0166   21.2238 H   0  0  0  0  0  0  0  0  0  0  0  0
    4.9151    1.7511   16.7471 H   0  0  0  0  0  0  0  0  0  0  0  0
    7.6455   -0.9765   18.1038 H   0  0  0  0  0  0  0  0  0  0  0  0
    9.7393   -0.1144   25.8245 H   0  0  0  0  0  0  0  0  0  0  0  0
   10.4789    1.4537   25.3745 H   0  0  0  0  0  0  0  0  0  0  0  0
    7.0317   -2.7463   20.5868 H   0  0  0  0  0  0  0  0  0  0  0  0
    5.9454   -1.9507   21.7618 H   0  0  0  0  0  0  0  0  0  0  0  0
    6.9093    0.3114   23.5740 H   0  0  0  0  0  0  0  0  0  0  0  0
    7.6675   -0.8456   24.6799 H   0  0  0  0  0  0  0  0  0  0  0  0
    8.7884   -2.8277   22.0130 H   0  0  0  0  0  0  0  0  0  0  0  0
    6.6588   -2.2951   24.1068 H   0  0  0  0  0  0  0  0  0  0  0  0
    8.2108   -3.1135   24.3691 H   0  0  0  0  0  0  0  0  0  0  0  0
    6.9886   -3.8468   23.3125 H   0  0  0  0  0  0  0  0  0  0  0  0
    9.3116    6.4123   23.8081 H   0  0  0  0  0  0  0  0  0  0  0  0
   10.1367    5.6360   25.2020 H   0  0  0  0  0  0  0  0  0  0  0  0
   11.0524    5.9838   23.6963 H   0  0  0  0  0  0  0  0  0  0  0  0
    9.5784    1.9986   22.8809 H   0  0  0  0  0  0  0  0  0  0  0  0
    7.8039    2.2476   22.9997 H   0  0  0  0  0  0  0  0  0  0  0  0
   10.0630    4.1186   22.6674 H   0  0  0  0  0  0  0  0  0  0  0  0
    8.1232    1.3531   25.3119 H   0  0  0  0  0  0  0  0  0  0  0  0
  1  2  2  0  0  0  0
  1  3  1  0  0  0  0
  2  4  1  0  0  0  0
  3 10  2  0  0  0  0
  4 11  2  0  0  0  0
  5  6  2  0  0  0  0
  5 12  1  0  0  0  0
  6 15  1  0  0  0  0
  7 13  1  0  0  0  0
  7 15  2  0  0  0  0
  8 10  1  0  0  0  0
  8 26  2  0  0  0  0
  9 14  2  0  0  0  0
  9 26  1  0  0  0  0
 10 11  1  0  0  0  0
 11 14  1  0  0  0  0
 12 13  2  0  0  0  0
 12 18  1  0  0  0  0
 13 22  1  0  0  0  0
 14 27  1  0  0  0  0
 15 32  1  0  0  0  0
 16 22  1  0  0  0  0
 16 27  1  0  0  0  0
 16 30  2  0  0  0  0
 17 25  1  0  0  0  0
 17 28  1  0  0  0  0
 17 31  2  0  0  0  0
 18 29  1  0  0  0  0
 19 21  1  0  0  0  0
 19 27  1  0  0  0  0
 20 22  1  0  0  0  0
 20 29  1  0  0  0  0
 21 22  1  0  0  0  0
 21 23  1  6  0  0  0
 24 28  1  0  0  0  0
 25 29  1  0  0  0  0
  1 33  1  0  0  0  0
  2 34  1  0  0  0  0
  3 35  1  0  0  0  0
  4 36  1  0  0  0  0
  5 37  1  0  0  0  0
  6 38  1  0  0  0  0
  7 39  1  0  0  0  0
  8 40  1  0  0  0  0
  9 41  1  0  0  0  0
 18 42  1  0  0  0  0
 18 43  1  0  0  0  0
 19 44  1  0  0  0  0
 19 45  1  0  0  0  0
 20 46  1  0  0  0  0
 20 47  1  0  0  0  0
 21 48  1  0  0  0  0
 23 49  1  0  0  0  0
 23 50  1  0  0  0  0
 23 51  1  0  0  0  0
 24 52  1  0  0  0  0
 24 53  1  0  0  0  0
 24 54  1  0  0  0  0
 25 55  1  0  0  0  0
 25 56  1  0  0  0  0
 28 57  1  0  0  0  0
 29 58  1  0  0  0  0
M  CHG  1  29   1
M  END
> <scaffold>
tetrahydroisoquinoline-5spiro-isoquinoline

> <compound>
MAT-POS-50a80394-4

> <compound_smiles>
CC1CN(C(=O)C12CN(Cc3c2cc(cc3)Cl)CC(=O)NC)c4cncc5c4cccc5

> <enantiomer_smiles>
C[C@H]1CN(C(=O)[C@@]12C[N@@](Cc3c2cc(cc3)Cl)CC(=O)NC)c4cncc5c4cccc5

> <clash_score>
0

> <docking_score>
3.4028234663852886e+38

> <overlap_score>
0.9863221049308777

> <MMFF_internal_energy>
163.64022507506232

> <docked_smiles>
C[C@H]1CN(C(=O)[C@@]12C[N@@H+](Cc3c2cc(cc3)Cl)CC(=O)NC)c4cncc5c4cccc5

$$$$
EDJ-MED-b6c6ee2b-6_1
  -OEChem-01042202303D

 53 57  0     1  0  0  0  0  0999 V2000
    3.7877    2.4205   19.1658 C   0  0  0  0  0  0  0  0  0  0  0  0
   12.0781    0.0316   24.1532 C   0  0  0  0  0  0  0  0  0  0  0  0
    3.3444    2.6278   20.4409 C   0  0  0  0  0  0  0  0  0  0  0  0
   12.9147   -0.6032   23.2559 C   0  0  0  0  0  0  0  0  0  0  0  0
    4.8986    1.0232   21.2985 C   0  0  0  0  0  0  0  0  0  0  0  0
   11.0005   -1.4332   22.0435 C   0  0  0  0  0  0  0  0  0  0  0  0
    5.3288    1.2339   17.6062 C   0  0  0  0  0  0  0  0  0  0  0  0
    6.8449   -0.2893   18.3747 C   0  0  0  0  0  0  0  0  0  0  0  0
    4.8238    1.4906   18.9051 C   0  0  0  0  0  0  0  0  0  0  0  0
    5.3995    0.7732   19.9944 C   0  0  0  0  0  0  0  0  0  0  0  0
   10.7056   -0.0626   23.9890 C   0  0  0  0  0  0  0  0  0  0  0  0
   10.1421   -0.7766   22.9242 C   0  0  0  0  0  0  0  0  0  0  0  0
    6.4452   -0.1472   19.6975 C   0  0  0  0  0  0  0  0  0  0  0  0
    3.8974    1.9290   21.5048 C   0  0  0  0  0  0  0  0  0  0  0  0
   12.3697   -1.3298   22.2224 C   0  0  0  0  0  0  0  0  0  0  0  0
    9.9496    0.5589   24.9527 C   0  0  0  0  0  0  0  0  0  0  0  0
    8.2504    0.0168   21.4265 C   0  0  0  0  0  0  0  0  0  0  0  0
    7.2900    2.1445   26.0369 C   0  0  0  0  0  0  0  0  0  0  0  0
    8.0155   -2.1541   22.4325 C   0  0  0  0  0  0  0  0  0  0  0  0
    6.9880   -1.9367   21.3575 C   0  0  0  0  0  0  0  0  0  0  0  0
    7.8737   -0.1194   23.8825 C   0  0  0  0  0  0  0  0  0  0  0  0
    8.6253   -0.7606   22.6923 C   0  0  3  0  0  0  0  0  0  0  0  0
    6.5711    3.5767   27.9463 C   0  0  0  0  0  0  0  0  0  0  0  0
    8.0937    2.2235   24.7641 C   0  0  0  0  0  0  0  0  0  0  0  0
    6.3072    0.3768   17.3417 N   0  0  0  0  0  0  0  0  0  0  0  0
    7.2305   -0.6898   20.7785 N   0  0  0  0  0  0  0  0  0  0  0  0
    8.6625    1.0133   24.4989 N   0  0  0  0  0  0  0  0  0  0  0  0
    7.2701    3.3635   26.6994 N   0  0  0  0  0  0  0  0  0  0  0  0
   10.3233    0.7301   26.1084 O   0  0  0  0  0  0  0  0  0  0  0  0
    8.8205    1.0412   21.0776 O   0  0  0  0  0  0  0  0  0  0  0  0
    6.7292    1.1210   26.4195 O   0  0  0  0  0  0  0  0  0  0  0  0
    3.4330    2.1555   22.7513 F   0  0  0  0  0  0  0  0  0  0  0  0
   13.4288   -2.1465   21.1124 Cl  0  0  0  0  0  0  0  0  0  0  0  0
    3.3411    2.9735   18.3363 H   0  0  0  0  0  0  0  0  0  0  0  0
   12.5188    0.5961   24.9710 H   0  0  0  0  0  0  0  0  0  0  0  0
    2.5441    3.3506   20.6360 H   0  0  0  0  0  0  0  0  0  0  0  0
   13.9920   -0.5226   23.3817 H   0  0  0  0  0  0  0  0  0  0  0  0
    5.3117    0.4882   22.1567 H   0  0  0  0  0  0  0  0  0  0  0  0
   10.6143   -2.0253   21.2266 H   0  0  0  0  0  0  0  0  0  0  0  0
    4.9147    1.7515   16.7472 H   0  0  0  0  0  0  0  0  0  0  0  0
    7.6456   -0.9763   18.1039 H   0  0  0  0  0  0  0  0  0  0  0  0
    7.5128   -2.5277   23.3386 H   0  0  0  0  0  0  0  0  0  0  0  0
    8.7593   -2.9102   22.1430 H   0  0  0  0  0  0  0  0  0  0  0  0
    7.0602   -2.7255   20.5716 H   0  0  0  0  0  0  0  0  0  0  0  0
    5.9526   -1.9964   21.7706 H   0  0  0  0  0  0  0  0  0  0  0  0
    6.9217    0.3182   23.5732 H   0  0  0  0  0  0  0  0  0  0  0  0
    7.6678   -0.8543   24.6617 H   0  0  0  0  0  0  0  0  0  0  0  0
    5.5409    3.9020   27.7387 H   0  0  0  0  0  0  0  0  0  0  0  0
    6.5506    2.6385   28.5201 H   0  0  0  0  0  0  0  0  0  0  0  0
    7.0898    4.3520   28.5293 H   0  0  0  0  0  0  0  0  0  0  0  0
    7.4419    2.5111   23.9339 H   0  0  0  0  0  0  0  0  0  0  0  0
    8.8897    2.9659   24.8736 H   0  0  0  0  0  0  0  0  0  0  0  0
    7.7718    4.1449   26.2876 H   0  0  0  0  0  0  0  0  0  0  0  0
  1  3  2  0  0  0  0
  1  9  1  0  0  0  0
  2  4  2  0  0  0  0
  2 11  1  0  0  0  0
  3 14  1  0  0  0  0
  4 15  1  0  0  0  0
  5 10  1  0  0  0  0
  5 14  2  0  0  0  0
  6 12  1  0  0  0  0
  6 15  2  0  0  0  0
  7  9  2  0  0  0  0
  7 25  1  0  0  0  0
  8 13  1  0  0  0  0
  8 25  2  0  0  0  0
  9 10  1  0  0  0  0
 10 13  2  0  0  0  0
 11 12  2  0  0  0  0
 11 16  1  0  0  0  0
 12 22  1  0  0  0  0
 13 26  1  0  0  0  0
 14 32  1  0  0  0  0
 15 33  1  0  0  0  0
 16 27  1  0  0  0  0
 16 29  2  0  0  0  0
 17 22  1  0  0  0  0
 17 26  1  0  0  0  0
 17 30  2  0  0  0  0
 18 24  1  0  0  0  0
 18 28  1  0  0  0  0
 18 31  2  0  0  0  0
 19 20  1  0  0  0  0
 19 22  1  0  0  0  0
 20 26  1  0  0  0  0
 21 22  1  0  0  0  0
 21 27  1  0  0  0  0
 23 28  1  0  0  0  0
 24 27  1  0  0  0  0
  1 34  1  0  0  0  0
  2 35  1  0  0  0  0
  3 36  1  0  0  0  0
  4 37  1  0  0  0  0
  5 38  1  0  0  0  0
  6 39  1  0  0  0  0
  7 40  1  0  0  0  0
  8 41  1  0  0  0  0
 19 42  1  0  0  0  0
 19 43  1  0  0  0  0
 20 44  1  0  0  0  0
 20 45  1  0  0  0  0
 21 46  1  0  0  0  0
 21 47  1  0  0  0  0
 23 48  1  0  0  0  0
 23 49  1  0  0  0  0
 23 50  1  0  0  0  0
 24 51  1  0  0  0  0
 24 52  1  0  0  0  0
 28 53  1  0  0  0  0
M  END
> <scaffold>
tetrahydroisoquinoline-5spiro-isoquinoline

> <compound>
EDJ-MED-b6c6ee2b-6

> <compound_smiles>
CNC(=O)CN1CC2(CCN(C2=O)c3cncc4c3cc(cc4)F)c5cc(ccc5C1=O)Cl

> <enantiomer_smiles>
CNC(=O)CN1C[C@]2(CCN(C2=O)c3cncc4c3cc(cc4)F)c5cc(ccc5C1=O)Cl

> <clash_score>
0

> <docking_score>
3.4028234663852886e+38

> <overlap_score>
1.0

> <MMFF_internal_energy>
151.8572863195321

> <docked_smiles>
CNC(=O)CN1C[C@]2(CCN(C2=O)c3cncc4c3cc(cc4)F)c5cc(ccc5C1=O)Cl

$$$$
ALP-POS-ecbed2ba-18_1
  -OEChem-01042202303D

 58 62  0     1  0  0  0  0  0999 V2000
    3.3444    2.6278   20.4409 C   0  0  0  0  0  0  0  0  0  0  0  0
    3.8974    1.9290   21.5048 C   0  0  0  0  0  0  0  0  0  0  0  0
    3.7877    2.4205   19.1658 C   0  0  0  0  0  0  0  0  0  0  0  0
    4.8986    1.0232   21.2985 C   0  0  0  0  0  0  0  0  0  0  0  0
   12.0781    0.0316   24.1532 C   0  0  0  0  0  0  0  0  0  0  0  0
   12.9147   -0.6032   23.2559 C   0  0  0  0  0  0  0  0  0  0  0  0
   11.0005   -1.4332   22.0435 C   0  0  0  0  0  0  0  0  0  0  0  0
    5.3288    1.2339   17.6062 C   0  0  0  0  0  0  0  0  0  0  0  0
    6.8449   -0.2893   18.3747 C   0  0  0  0  0  0  0  0  0  0  0  0
    4.8238    1.4906   18.9051 C   0  0  0  0  0  0  0  0  0  0  0  0
    5.3995    0.7732   19.9944 C   0  0  0  0  0  0  0  0  0  0  0  0
   10.7056   -0.0626   23.9890 C   0  0  0  0  0  0  0  0  0  0  0  0
   10.1421   -0.7766   22.9242 C   0  0  0  0  0  0  0  0  0  0  0  0
    6.4452   -0.1472   19.6975 C   0  0  0  0  0  0  0  0  0  0  0  0
   12.3697   -1.3298   22.2224 C   0  0  0  0  0  0  0  0  0  0  0  0
    8.2504    0.0168   21.4265 C   0  0  0  0  0  0  0  0  0  0  0  0
    9.9496    0.5589   24.9527 C   0  0  0  0  0  0  0  0  0  0  0  0
    8.0155   -2.1541   22.4325 C   0  0  0  0  0  0  0  0  0  0  0  0
    6.9880   -1.9367   21.3575 C   0  0  0  0  0  0  0  0  0  0  0  0
    7.8737   -0.1194   23.8825 C   0  0  0  0  0  0  0  0  0  0  0  0
    8.6253   -0.7606   22.6923 C   0  0  3  0  0  0  0  0  0  0  0  0
    4.6281    1.8168   26.7079 C   0  0  0  0  0  0  0  0  0  0  0  0
    7.8389    1.2506   27.4793 C   0  0  0  0  0  0  0  0  0  0  0  0
    5.7981    1.1158   26.1059 C   0  0  0  0  0  0  0  0  0  0  0  0
    6.3072    0.3768   17.3417 N   0  0  0  0  0  0  0  0  0  0  0  0
    7.2305   -0.6898   20.7785 N   0  0  0  0  0  0  0  0  0  0  0  0
    8.6625    1.0133   24.4989 N   0  0  3  0  0  0  0  0  0  0  0  0
    7.0596    1.8556   26.3685 N   0  0  3  0  0  0  0  0  0  0  0  0
    8.7514    1.0901   21.1243 O   0  0  0  0  0  0  0  0  0  0  0  0
    7.0151    2.8419   23.9724 O   0  0  0  0  0  0  0  0  0  0  0  0
    9.0058    3.2924   25.4394 O   0  0  0  0  0  0  0  0  0  0  0  0
    7.9493    2.4047   24.9925 S   0  0  0  0  0  0  0  0  0  0  0  0
   13.4297   -2.1462   21.1126 Cl  0  0  0  0  0  0  0  0  0  0  0  0
    2.5443    3.3508   20.6368 H   0  0  0  0  0  0  0  0  0  0  0  0
    3.5189    2.1137   22.5166 H   0  0  0  0  0  0  0  0  0  0  0  0
    3.3421    2.9744   18.3363 H   0  0  0  0  0  0  0  0  0  0  0  0
    5.3131    0.4893   22.1569 H   0  0  0  0  0  0  0  0  0  0  0  0
   12.5046    0.5852   24.9818 H   0  0  0  0  0  0  0  0  0  0  0  0
   13.9930   -0.5302   23.3869 H   0  0  0  0  0  0  0  0  0  0  0  0
   10.6139   -2.0326   21.2341 H   0  0  0  0  0  0  0  0  0  0  0  0
    4.9151    1.7511   16.7471 H   0  0  0  0  0  0  0  0  0  0  0  0
    7.6455   -0.9765   18.1038 H   0  0  0  0  0  0  0  0  0  0  0  0
    9.7590   -0.1307   25.8193 H   0  0  0  0  0  0  0  0  0  0  0  0
   10.4971    1.4368   25.3930 H   0  0  0  0  0  0  0  0  0  0  0  0
    7.5139   -2.5724   23.3172 H   0  0  0  0  0  0  0  0  0  0  0  0
    8.7710   -2.8991   22.1377 H   0  0  0  0  0  0  0  0  0  0  0  0
    7.0576   -2.7256   20.5712 H   0  0  0  0  0  0  0  0  0  0  0  0
    5.9526   -1.9955   21.7714 H   0  0  0  0  0  0  0  0  0  0  0  0
    6.8959    0.2848   23.5662 H   0  0  0  0  0  0  0  0  0  0  0  0
    7.6721   -0.8632   24.6716 H   0  0  0  0  0  0  0  0  0  0  0  0
    4.5436    2.8258   26.2782 H   0  0  0  0  0  0  0  0  0  0  0  0
    3.7106    1.2491   26.4936 H   0  0  0  0  0  0  0  0  0  0  0  0
    4.7666    1.8924   27.7966 H   0  0  0  0  0  0  0  0  0  0  0  0
    8.7612    1.8287   27.6381 H   0  0  0  0  0  0  0  0  0  0  0  0
    7.2359    1.2626   28.3992 H   0  0  0  0  0  0  0  0  0  0  0  0
    8.0966    0.2123   27.2233 H   0  0  0  0  0  0  0  0  0  0  0  0
    5.8756    0.1083   26.5405 H   0  0  0  0  0  0  0  0  0  0  0  0
    5.6483    1.0358   25.0190 H   0  0  0  0  0  0  0  0  0  0  0  0
  1  2  2  0  0  0  0
  1  3  1  0  0  0  0
  2  4  1  0  0  0  0
  3 10  2  0  0  0  0
  4 11  2  0  0  0  0
  5  6  2  0  0  0  0
  5 12  1  0  0  0  0
  6 15  1  0  0  0  0
  7 13  1  0  0  0  0
  7 15  2  0  0  0  0
  8 10  1  0  0  0  0
  8 25  2  0  0  0  0
  9 14  2  0  0  0  0
  9 25  1  0  0  0  0
 10 11  1  0  0  0  0
 11 14  1  0  0  0  0
 12 13  2  0  0  0  0
 12 17  1  0  0  0  0
 13 21  1  0  0  0  0
 14 26  1  0  0  0  0
 15 33  1  0  0  0  0
 16 21  1  0  0  0  0
 16 26  1  0  0  0  0
 16 29  2  0  0  0  0
 17 27  1  0  0  0  0
 18 19  1  0  0  0  0
 18 21  1  0  0  0  0
 19 26  1  0  0  0  0
 20 21  1  0  0  0  0
 20 27  1  0  0  0  0
 22 24  1  0  0  0  0
 23 28  1  0  0  0  0
 24 28  1  0  0  0  0
 27 32  1  0  0  0  0
 28 32  1  0  0  0  0
 30 32  2  0  0  0  0
 31 32  2  0  0  0  0
  1 34  1  0  0  0  0
  2 35  1  0  0  0  0
  3 36  1  0  0  0  0
  4 37  1  0  0  0  0
  5 38  1  0  0  0  0
  6 39  1  0  0  0  0
  7 40  1  0  0  0  0
  8 41  1  0  0  0  0
  9 42  1  0  0  0  0
 17 43  1  0  0  0  0
 17 44  1  0  0  0  0
 18 45  1  0  0  0  0
 18 46  1  0  0  0  0
 19 47  1  0  0  0  0
 19 48  1  0  0  0  0
 20 49  1  0  0  0  0
 20 50  1  0  0  0  0
 22 51  1  0  0  0  0
 22 52  1  0  0  0  0
 22 53  1  0  0  0  0
 23 54  1  0  0  0  0
 23 55  1  0  0  0  0
 23 56  1  0  0  0  0
 24 57  1  0  0  0  0
 24 58  1  0  0  0  0
M  END
> <scaffold>
tetrahydroisoquinoline-5spiro-isoquinoline

> <compound>
ALP-POS-ecbed2ba-18

> <compound_smiles>
CCN(C)S(=O)(=O)N1Cc2ccc(cc2C3(C1)CCN(C3=O)c4cncc5c4cccc5)Cl

> <enantiomer_smiles>
CC[N@](C)S(=O)(=O)[N@]1Cc2ccc(cc2[C@@]3(C1)CCN(C3=O)c4cncc5c4cccc5)Cl

> <clash_score>
0

> <docking_score>
3.4028234663852886e+38

> <overlap_score>
0.9755815863609314

> <MMFF_internal_energy>
-20.394105541291015

> <docked_smiles>
CC[N@@](C)S(=O)(=O)[N@@]1Cc2ccc(cc2[C@@]3(C1)CCN(C3=O)c4cncc5c4cccc5)Cl

$$$$
VLA-UNK-61877630-4_1
  -OEChem-01042202313D

 53 57  0     1  0  0  0  0  0999 V2000
    3.3444    2.6278   20.4409 C   0  0  0  0  0  0  0  0  0  0  0  0
    3.8974    1.9290   21.5048 C   0  0  0  0  0  0  0  0  0  0  0  0
    3.7877    2.4205   19.1658 C   0  0  0  0  0  0  0  0  0  0  0  0
    4.8986    1.0232   21.2985 C   0  0  0  0  0  0  0  0  0  0  0  0
   11.0005   -1.4332   22.0435 C   0  0  0  0  0  0  0  0  0  0  0  0
   12.9147   -0.6032   23.2559 C   0  0  0  0  0  0  0  0  0  0  0  0
    5.3288    1.2339   17.6062 C   0  0  0  0  0  0  0  0  0  0  0  0
    6.8449   -0.2893   18.3747 C   0  0  0  0  0  0  0  0  0  0  0  0
    4.8238    1.4906   18.9051 C   0  0  0  0  0  0  0  0  0  0  0  0
    5.3995    0.7732   19.9944 C   0  0  0  0  0  0  0  0  0  0  0  0
   10.7056   -0.0626   23.9890 C   0  0  0  0  0  0  0  0  0  0  0  0
   10.1421   -0.7766   22.9242 C   0  0  0  0  0  0  0  0  0  0  0  0
    6.4452   -0.1472   19.6975 C   0  0  0  0  0  0  0  0  0  0  0  0
   12.0781    0.0316   24.1532 C   0  0  0  0  0  0  0  0  0  0  0  0
   12.3697   -1.3298   22.2224 C   0  0  0  0  0  0  0  0  0  0  0  0
    9.9496    0.5589   24.9527 C   0  0  0  0  0  0  0  0  0  0  0  0
    8.2504    0.0168   21.4265 C   0  0  0  0  0  0  0  0  0  0  0  0
    7.2792    2.1116   26.0358 C   0  0  0  0  0  0  0  0  0  0  0  0
    8.0155   -2.1541   22.4325 C   0  0  0  0  0  0  0  0  0  0  0  0
    6.9880   -1.9367   21.3575 C   0  0  0  0  0  0  0  0  0  0  0  0
    7.8737   -0.1194   23.8825 C   0  0  0  0  0  0  0  0  0  0  0  0
    8.6253   -0.7606   22.6923 C   0  0  2  0  0  0  0  0  0  0  0  0
    6.5262    3.5004   27.9641 C   0  0  0  0  0  0  0  0  0  0  0  0
    8.0895    2.2244   24.7698 C   0  0  0  0  0  0  0  0  0  0  0  0
    6.3072    0.3768   17.3417 N   0  0  0  0  0  0  0  0  0  0  0  0
    7.2305   -0.6898   20.7785 N   0  0  0  0  0  0  0  0  0  0  0  0
    8.6625    1.0133   24.4989 N   0  0  0  0  0  0  0  0  0  0  0  0
    7.2362    3.3189   26.7185 N   0  0  0  0  0  0  0  0  0  0  0  0
   10.3247    0.7292   26.1099 O   0  0  0  0  0  0  0  0  0  0  0  0
    8.7593    1.0936   21.1345 O   0  0  0  0  0  0  0  0  0  0  0  0
    6.7321    1.0733   26.3978 O   0  0  0  0  0  0  0  0  0  0  0  0
   12.6246    0.7154   25.1693 F   0  0  0  0  0  0  0  0  0  0  0  0
   13.4290   -2.1367   21.1054 Cl  0  0  0  0  0  0  0  0  0  0  0  0
    2.5443    3.3508   20.6368 H   0  0  0  0  0  0  0  0  0  0  0  0
    3.5189    2.1137   22.5166 H   0  0  0  0  0  0  0  0  0  0  0  0
    3.3421    2.9744   18.3363 H   0  0  0  0  0  0  0  0  0  0  0  0
    5.3131    0.4893   22.1569 H   0  0  0  0  0  0  0  0  0  0  0  0
   10.6144   -2.0169   21.2205 H   0  0  0  0  0  0  0  0  0  0  0  0
   13.9919   -0.5176   23.3784 H   0  0  0  0  0  0  0  0  0  0  0  0
    4.9151    1.7511   16.7471 H   0  0  0  0  0  0  0  0  0  0  0  0
    7.6455   -0.9765   18.1038 H   0  0  0  0  0  0  0  0  0  0  0  0
    7.5780   -2.6144   23.3301 H   0  0  0  0  0  0  0  0  0  0  0  0
    8.7855   -2.8468   22.0579 H   0  0  0  0  0  0  0  0  0  0  0  0
    7.0246   -2.7504   20.5941 H   0  0  0  0  0  0  0  0  0  0  0  0
    5.9565   -1.9490   21.7829 H   0  0  0  0  0  0  0  0  0  0  0  0
    6.9030    0.2699   23.5733 H   0  0  0  0  0  0  0  0  0  0  0  0
    7.7064   -0.8359   24.6900 H   0  0  0  0  0  0  0  0  0  0  0  0
    5.4925    3.8130   27.7554 H   0  0  0  0  0  0  0  0  0  0  0  0
    6.5169    2.5525   28.5222 H   0  0  0  0  0  0  0  0  0  0  0  0
    7.0292    4.2737   28.5633 H   0  0  0  0  0  0  0  0  0  0  0  0
    7.4384    2.5157   23.9403 H   0  0  0  0  0  0  0  0  0  0  0  0
    8.8731    2.9771   24.8968 H   0  0  0  0  0  0  0  0  0  0  0  0
    7.7282    4.1148   26.3229 H   0  0  0  0  0  0  0  0  0  0  0  0
  1  2  2  0  0  0  0
  1  3  1  0  0  0  0
  2  4  1  0  0  0  0
  3  9  2  0  0  0  0
  4 10  2  0  0  0  0
  5 12  2  0  0  0  0
  5 15  1  0  0  0  0
  6 14  1  0  0  0  0
  6 15  2  0  0  0  0
  7  9  1  0  0  0  0
  7 25  2  0  0  0  0
  8 13  2  0  0  0  0
  8 25  1  0  0  0  0
  9 10  1  0  0  0  0
 10 13  1  0  0  0  0
 11 12  1  0  0  0  0
 11 14  2  0  0  0  0
 11 16  1  0  0  0  0
 12 22  1  6  0  0  0
 13 26  1  0  0  0  0
 14 32  1  0  0  0  0
 15 33  1  0  0  0  0
 16 27  1  0  0  0  0
 16 29  2  0  0  0  0
 17 22  1  6  0  0  0
 17 26  1  0  0  0  0
 17 30  2  0  0  0  0
 18 24  1  0  0  0  0
 18 28  1  0  0  0  0
 18 31  2  0  0  0  0
 19 20  1  0  0  0  0
 19 22  1  1  0  0  0
 20 26  1  0  0  0  0
 21 22  1  1  0  0  0
 21 27  1  0  0  0  0
 23 28  1  0  0  0  0
 24 27  1  0  0  0  0
  1 34  1  0  0  0  0
  2 35  1  0  0  0  0
  3 36  1  0  0  0  0
  4 37  1  0  0  0  0
  5 38  1  0  0  0  0
  6 39  1  0  0  0  0
  7 40  1  0  0  0  0
  8 41  1  0  0  0  0
 19 42  1  0  0  0  0
 19 43  1  0  0  0  0
 20 44  1  0  0  0  0
 20 45  1  0  0  0  0
 21 46  1  0  0  0  0
 21 47  1  0  0  0  0
 23 48  1  0  0  0  0
 23 49  1  0  0  0  0
 23 50  1  0  0  0  0
 24 51  1  0  0  0  0
 24 52  1  0  0  0  0
 28 53  1  0  0  0  0
M  END
> <scaffold>
tetrahydroisoquinoline-5spiro-isoquinoline

> <compound>
VLA-UNK-61877630-4

> <compound_smiles>
CNC(=O)CN1C[C@@]2(CCN(C2=O)c3cncc4c3cccc4)c5cc(cc(c5C1=O)F)Cl

> <enantiomer_smiles>
CNC(=O)CN1C[C@@]2(CCN(C2=O)c3cncc4c3cccc4)c5cc(cc(c5C1=O)F)Cl

> <clash_score>
0

> <docking_score>
3.4028234663852886e+38

> <overlap_score>
1.0

> <MMFF_internal_energy>
147.99003118202734

> <docked_smiles>
CNC(=O)CN1C[C@@]2(CCN(C2=O)c3cncc4c3cccc4)c5cc(cc(c5C1=O)F)Cl

$$$$
ALP-POS-ecbed2ba-20_1
  -OEChem-01042202313D

 56 61  0     1  0  0  0  0  0999 V2000
    3.3444    2.6278   20.4409 C   0  0  0  0  0  0  0  0  0  0  0  0
    3.8974    1.9290   21.5048 C   0  0  0  0  0  0  0  0  0  0  0  0
    3.7877    2.4205   19.1658 C   0  0  0  0  0  0  0  0  0  0  0  0
    4.8986    1.0232   21.2985 C   0  0  0  0  0  0  0  0  0  0  0  0
   12.0781    0.0316   24.1532 C   0  0  0  0  0  0  0  0  0  0  0  0
   12.9147   -0.6032   23.2559 C   0  0  0  0  0  0  0  0  0  0  0  0
   11.0005   -1.4332   22.0435 C   0  0  0  0  0  0  0  0  0  0  0  0
    5.3288    1.2339   17.6062 C   0  0  0  0  0  0  0  0  0  0  0  0
    6.8449   -0.2893   18.3747 C   0  0  0  0  0  0  0  0  0  0  0  0
    4.8238    1.4906   18.9051 C   0  0  0  0  0  0  0  0  0  0  0  0
    5.3995    0.7732   19.9944 C   0  0  0  0  0  0  0  0  0  0  0  0
   10.7056   -0.0626   23.9890 C   0  0  0  0  0  0  0  0  0  0  0  0
   10.1421   -0.7766   22.9242 C   0  0  0  0  0  0  0  0  0  0  0  0
    6.4452   -0.1472   19.6975 C   0  0  0  0  0  0  0  0  0  0  0  0
   12.3697   -1.3298   22.2224 C   0  0  0  0  0  0  0  0  0  0  0  0
    8.2504    0.0168   21.4265 C   0  0  0  0  0  0  0  0  0  0  0  0
    9.9496    0.5589   24.9527 C   0  0  0  0  0  0  0  0  0  0  0  0
    9.6593    5.2834   25.5867 C   0  0  0  0  0  0  0  0  0  0  0  0
    8.0155   -2.1541   22.4325 C   0  0  0  0  0  0  0  0  0  0  0  0
    9.3810    4.1542   24.5794 C   0  0  0  0  0  0  0  0  0  0  0  0
    8.6803    4.5444   26.5156 C   0  0  0  0  0  0  0  0  0  0  0  0
    6.9880   -1.9367   21.3575 C   0  0  0  0  0  0  0  0  0  0  0  0
    7.8737   -0.1194   23.8825 C   0  0  0  0  0  0  0  0  0  0  0  0
    8.6253   -0.7606   22.6923 C   0  0  3  0  0  0  0  0  0  0  0  0
    6.3072    0.3768   17.3417 N   0  0  0  0  0  0  0  0  0  0  0  0
    7.2305   -0.6898   20.7785 N   0  0  0  0  0  0  0  0  0  0  0  0
    8.6625    1.0133   24.4989 N   0  0  3  0  0  0  0  0  0  0  0  0
    8.8732    3.2993   25.7023 N   0  0  0  0  0  0  0  0  0  0  0  0
    8.8314    1.0394   21.0790 O   0  0  0  0  0  0  0  0  0  0  0  0
    6.5916    2.4989   24.8694 O   0  0  0  0  0  0  0  0  0  0  0  0
    7.6627    1.3674   26.8550 O   0  0  0  0  0  0  0  0  0  0  0  0
    7.7725    2.0180   25.5623 S   0  0  0  0  0  0  0  0  0  0  0  0
   13.4285   -2.1410   21.1076 Cl  0  0  0  0  0  0  0  0  0  0  0  0
    2.5443    3.3508   20.6368 H   0  0  0  0  0  0  0  0  0  0  0  0
    3.5189    2.1137   22.5166 H   0  0  0  0  0  0  0  0  0  0  0  0
    3.3421    2.9744   18.3363 H   0  0  0  0  0  0  0  0  0  0  0  0
    5.3131    0.4893   22.1569 H   0  0  0  0  0  0  0  0  0  0  0  0
   12.5038    0.5986   24.9731 H   0  0  0  0  0  0  0  0  0  0  0  0
   13.9925   -0.5165   23.3773 H   0  0  0  0  0  0  0  0  0  0  0  0
   10.6052   -2.0169   21.2237 H   0  0  0  0  0  0  0  0  0  0  0  0
    4.9151    1.7511   16.7471 H   0  0  0  0  0  0  0  0  0  0  0  0
    7.6455   -0.9765   18.1038 H   0  0  0  0  0  0  0  0  0  0  0  0
    9.7866   -0.1187   25.8304 H   0  0  0  0  0  0  0  0  0  0  0  0
   10.4816    1.4567   25.3600 H   0  0  0  0  0  0  0  0  0  0  0  0
   10.6903    5.3080   25.9547 H   0  0  0  0  0  0  0  0  0  0  0  0
    9.3547    6.2848   25.2745 H   0  0  0  0  0  0  0  0  0  0  0  0
    7.5167   -2.5459   23.3332 H   0  0  0  0  0  0  0  0  0  0  0  0
    8.7666   -2.9029   22.1426 H   0  0  0  0  0  0  0  0  0  0  0  0
    8.6001    4.3770   23.8450 H   0  0  0  0  0  0  0  0  0  0  0  0
   10.2573    3.7328   24.0820 H   0  0  0  0  0  0  0  0  0  0  0  0
    9.0009    4.4327   27.5537 H   0  0  0  0  0  0  0  0  0  0  0  0
    7.6481    4.9074   26.4758 H   0  0  0  0  0  0  0  0  0  0  0  0
    7.0601   -2.7250   20.5715 H   0  0  0  0  0  0  0  0  0  0  0  0
    5.9530   -1.9963   21.7709 H   0  0  0  0  0  0  0  0  0  0  0  0
    6.8882    0.2643   23.5640 H   0  0  0  0  0  0  0  0  0  0  0  0
    7.6667   -0.8657   24.6729 H   0  0  0  0  0  0  0  0  0  0  0  0
  1  2  2  0  0  0  0
  1  3  1  0  0  0  0
  2  4  1  0  0  0  0
  3 10  2  0  0  0  0
  4 11  2  0  0  0  0
  5  6  2  0  0  0  0
  5 12  1  0  0  0  0
  6 15  1  0  0  0  0
  7 13  1  0  0  0  0
  7 15  2  0  0  0  0
  8 10  1  0  0  0  0
  8 25  2  0  0  0  0
  9 14  2  0  0  0  0
  9 25  1  0  0  0  0
 10 11  1  0  0  0  0
 11 14  1  0  0  0  0
 12 13  2  0  0  0  0
 12 17  1  0  0  0  0
 13 24  1  0  0  0  0
 14 26  1  0  0  0  0
 15 33  1  0  0  0  0
 16 24  1  0  0  0  0
 16 26  1  0  0  0  0
 16 29  2  0  0  0  0
 17 27  1  0  0  0  0
 18 20  1  0  0  0  0
 18 21  1  0  0  0  0
 19 22  1  0  0  0  0
 19 24  1  0  0  0  0
 20 28  1  0  0  0  0
 21 28  1  0  0  0  0
 22 26  1  0  0  0  0
 23 24  1  0  0  0  0
 23 27  1  0  0  0  0
 27 32  1  0  0  0  0
 28 32  1  0  0  0  0
 30 32  2  0  0  0  0
 31 32  2  0  0  0  0
  1 34  1  0  0  0  0
  2 35  1  0  0  0  0
  3 36  1  0  0  0  0
  4 37  1  0  0  0  0
  5 38  1  0  0  0  0
  6 39  1  0  0  0  0
  7 40  1  0  0  0  0
  8 41  1  0  0  0  0
  9 42  1  0  0  0  0
 17 43  1  0  0  0  0
 17 44  1  0  0  0  0
 18 45  1  0  0  0  0
 18 46  1  0  0  0  0
 19 47  1  0  0  0  0
 19 48  1  0  0  0  0
 20 49  1  0  0  0  0
 20 50  1  0  0  0  0
 21 51  1  0  0  0  0
 21 52  1  0  0  0  0
 22 53  1  0  0  0  0
 22 54  1  0  0  0  0
 23 55  1  0  0  0  0
 23 56  1  0  0  0  0
M  END
> <scaffold>
tetrahydroisoquinoline-5spiro-isoquinoline

> <compound>
ALP-POS-ecbed2ba-20

> <compound_smiles>
c1ccc2c(c1)cncc2N3CCC4(C3=O)CN(Cc5c4cc(cc5)Cl)S(=O)(=O)N6CCC6

> <enantiomer_smiles>
c1ccc2c(c1)cncc2N3CC[C@]4(C3=O)C[N@](Cc5c4cc(cc5)Cl)S(=O)(=O)N6CCC6

> <clash_score>
0

> <docking_score>
3.4028234663852886e+38

> <overlap_score>
0.973592221736908

> <MMFF_internal_energy>
-16.78427347469093

> <docked_smiles>
c1ccc2c(c1)cncc2N3CC[C@]4(C3=O)C[N@](Cc5c4cc(cc5)Cl)S(=O)(=O)N6CCC6

$$$$
PET-UNK-7e9559de-4_1
  -OEChem-01042202313D

 53 58  0     1  0  0  0  0  0999 V2000
    3.3444    2.6278   20.4409 C   0  0  0  0  0  0  0  0  0  0  0  0
    3.8974    1.9290   21.5048 C   0  0  0  0  0  0  0  0  0  0  0  0
    3.7877    2.4205   19.1658 C   0  0  0  0  0  0  0  0  0  0  0  0
    4.8986    1.0232   21.2985 C   0  0  0  0  0  0  0  0  0  0  0  0
   12.0781    0.0316   24.1532 C   0  0  0  0  0  0  0  0  0  0  0  0
   12.9147   -0.6032   23.2559 C   0  0  0  0  0  0  0  0  0  0  0  0
   11.0005   -1.4332   22.0435 C   0  0  0  0  0  0  0  0  0  0  0  0
    5.3288    1.2339   17.6062 C   0  0  0  0  0  0  0  0  0  0  0  0
    6.8449   -0.2893   18.3747 C   0  0  0  0  0  0  0  0  0  0  0  0
    4.8419    3.8549   24.5721 C   0  0  0  0  0  0  0  0  0  0  0  0
    4.8238    1.4906   18.9051 C   0  0  0  0  0  0  0  0  0  0  0  0
    5.3995    0.7732   19.9944 C   0  0  0  0  0  0  0  0  0  0  0  0
   10.7056   -0.0626   23.9890 C   0  0  0  0  0  0  0  0  0  0  0  0
   10.1421   -0.7766   22.9242 C   0  0  0  0  0  0  0  0  0  0  0  0
    6.4452   -0.1472   19.6975 C   0  0  0  0  0  0  0  0  0  0  0  0
   12.3697   -1.3298   22.2224 C   0  0  0  0  0  0  0  0  0  0  0  0
    6.7918    2.5984   25.0033 C   0  0  0  0  0  0  0  0  0  0  0  0
    8.2504    0.0168   21.4265 C   0  0  0  0  0  0  0  0  0  0  0  0
    9.9496    0.5589   24.9527 C   0  0  0  0  0  0  0  0  0  0  0  0
    8.0155   -2.1541   22.4325 C   0  0  0  0  0  0  0  0  0  0  0  0
    6.9880   -1.9367   21.3575 C   0  0  0  0  0  0  0  0  0  0  0  0
    7.8737   -0.1194   23.8825 C   0  0  0  0  0  0  0  0  0  0  0  0
    8.6253   -0.7606   22.6923 C   0  0  3  0  0  0  0  0  0  0  0  0
    7.8612    1.7144   25.5743 C   0  0  0  0  0  0  0  0  0  0  0  0
    6.3072    0.3768   17.3417 N   0  0  0  0  0  0  0  0  0  0  0  0
    5.7199    3.9673   23.5982 N   0  0  0  0  0  0  0  0  0  0  0  0
    6.8632    3.2295   23.8507 N   0  0  0  0  0  0  0  0  0  0  0  0
    7.2305   -0.6898   20.7785 N   0  0  0  0  0  0  0  0  0  0  0  0
    8.6625    1.0133   24.4989 N   0  3  3  0  0  0  0  0  0  0  0  0
    8.8307    1.0396   21.0789 O   0  0  0  0  0  0  0  0  0  0  0  0
    5.3338    2.8486   25.8710 S   0  0  0  0  0  0  0  0  0  0  0  0
   13.4286   -2.1403   21.1072 Cl  0  0  0  0  0  0  0  0  0  0  0  0
    2.5443    3.3508   20.6368 H   0  0  0  0  0  0  0  0  0  0  0  0
    3.5189    2.1137   22.5166 H   0  0  0  0  0  0  0  0  0  0  0  0
    3.3421    2.9744   18.3363 H   0  0  0  0  0  0  0  0  0  0  0  0
    5.3131    0.4893   22.1569 H   0  0  0  0  0  0  0  0  0  0  0  0
   12.5040    0.5973   24.9741 H   0  0  0  0  0  0  0  0  0  0  0  0
   13.9926   -0.5176   23.3780 H   0  0  0  0  0  0  0  0  0  0  0  0
   10.6057   -2.0168   21.2239 H   0  0  0  0  0  0  0  0  0  0  0  0
    4.9151    1.7511   16.7471 H   0  0  0  0  0  0  0  0  0  0  0  0
    7.6455   -0.9765   18.1038 H   0  0  0  0  0  0  0  0  0  0  0  0
    3.8851    4.3573   24.5564 H   0  0  0  0  0  0  0  0  0  0  0  0
    9.7630   -0.1207   25.8244 H   0  0  0  0  0  0  0  0  0  0  0  0
   10.4585    1.4662   25.3691 H   0  0  0  0  0  0  0  0  0  0  0  0
    7.5159   -2.5477   23.3319 H   0  0  0  0  0  0  0  0  0  0  0  0
    8.7613   -2.9061   22.1409 H   0  0  0  0  0  0  0  0  0  0  0  0
    7.0594   -2.7244   20.5709 H   0  0  0  0  0  0  0  0  0  0  0  0
    5.9531   -1.9957   21.7710 H   0  0  0  0  0  0  0  0  0  0  0  0
    6.8972    0.2930   23.5750 H   0  0  0  0  0  0  0  0  0  0  0  0
    7.6778   -0.8486   24.6901 H   0  0  0  0  0  0  0  0  0  0  0  0
    8.5605    2.2876   26.1923 H   0  0  0  0  0  0  0  0  0  0  0  0
    7.4300    0.9266   26.2014 H   0  0  0  0  0  0  0  0  0  0  0  0
    8.7953    1.7233   23.7550 H   0  0  0  0  0  0  0  0  0  0  0  0
  1  2  2  0  0  0  0
  1  3  1  0  0  0  0
  2  4  1  0  0  0  0
  3 11  2  0  0  0  0
  4 12  2  0  0  0  0
  5  6  2  0  0  0  0
  5 13  1  0  0  0  0
  6 16  1  0  0  0  0
  7 14  1  0  0  0  0
  7 16  2  0  0  0  0
  8 11  1  0  0  0  0
  8 25  2  0  0  0  0
  9 15  2  0  0  0  0
  9 25  1  0  0  0  0
 10 26  2  0  0  0  0
 10 31  1  0  0  0  0
 11 12  1  0  0  0  0
 12 15  1  0  0  0  0
 13 14  2  0  0  0  0
 13 19  1  0  0  0  0
 14 23  1  0  0  0  0
 15 28  1  0  0  0  0
 16 32  1  0  0  0  0
 17 24  1  0  0  0  0
 17 27  2  0  0  0  0
 17 31  1  0  0  0  0
 18 23  1  0  0  0  0
 18 28  1  0  0  0  0
 18 30  2  0  0  0  0
 19 29  1  0  0  0  0
 20 21  1  0  0  0  0
 20 23  1  0  0  0  0
 21 28  1  0  0  0  0
 22 23  1  0  0  0  0
 22 29  1  0  0  0  0
 24 29  1  0  0  0  0
 26 27  1  0  0  0  0
  1 33  1  0  0  0  0
  2 34  1  0  0  0  0
  3 35  1  0  0  0  0
  4 36  1  0  0  0  0
  5 37  1  0  0  0  0
  6 38  1  0  0  0  0
  7 39  1  0  0  0  0
  8 40  1  0  0  0  0
  9 41  1  0  0  0  0
 10 42  1  0  0  0  0
 19 43  1  0  0  0  0
 19 44  1  0  0  0  0
 20 45  1  0  0  0  0
 20 46  1  0  0  0  0
 21 47  1  0  0  0  0
 21 48  1  0  0  0  0
 22 49  1  0  0  0  0
 22 50  1  0  0  0  0
 24 51  1  0  0  0  0
 24 52  1  0  0  0  0
 29 53  1  0  0  0  0
M  CHG  1  29   1
M  END
> <scaffold>
tetrahydroisoquinoline-5spiro-isoquinoline

> <compound>
PET-UNK-7e9559de-4

> <compound_smiles>
c1ccc2c(c1)cncc2N3CCC4(C3=O)CN(Cc5c4cc(cc5)Cl)Cc6nncs6

> <enantiomer_smiles>
c1ccc2c(c1)cncc2N3CC[C@]4(C3=O)C[N@](Cc5c4cc(cc5)Cl)Cc6nncs6

> <clash_score>
0

> <docking_score>
3.4028234663852886e+38

> <overlap_score>
0.9749892950057983

> <MMFF_internal_energy>
142.43009334280023

> <docked_smiles>
c1ccc2c(c1)cncc2N3CC[C@]4(C3=O)C[N@H+](Cc5c4cc(cc5)Cl)Cc6nncs6

$$$$
PET-UNK-aa57768f-7_1
  -OEChem-01042202313D

 51 56  0     1  0  0  0  0  0999 V2000
    3.3444    2.6278   20.4409 C   0  0  0  0  0  0  0  0  0  0  0  0
    3.8974    1.9290   21.5048 C   0  0  0  0  0  0  0  0  0  0  0  0
    3.7877    2.4205   19.1658 C   0  0  0  0  0  0  0  0  0  0  0  0
    4.8986    1.0232   21.2985 C   0  0  0  0  0  0  0  0  0  0  0  0
   12.0781    0.0316   24.1532 C   0  0  0  0  0  0  0  0  0  0  0  0
   12.9147   -0.6032   23.2559 C   0  0  0  0  0  0  0  0  0  0  0  0
   11.0005   -1.4332   22.0435 C   0  0  0  0  0  0  0  0  0  0  0  0
    5.3288    1.2339   17.6062 C   0  0  0  0  0  0  0  0  0  0  0  0
    6.8449   -0.2893   18.3747 C   0  0  0  0  0  0  0  0  0  0  0  0
    6.4962    3.0360   27.8029 C   0  0  0  0  0  0  0  0  0  0  0  0
    4.8238    1.4906   18.9051 C   0  0  0  0  0  0  0  0  0  0  0  0
    5.3995    0.7732   19.9944 C   0  0  0  0  0  0  0  0  0  0  0  0
   10.7056   -0.0626   23.9890 C   0  0  0  0  0  0  0  0  0  0  0  0
   10.1421   -0.7766   22.9242 C   0  0  0  0  0  0  0  0  0  0  0  0
    6.4452   -0.1472   19.6975 C   0  0  0  0  0  0  0  0  0  0  0  0
   12.3697   -1.3298   22.2224 C   0  0  0  0  0  0  0  0  0  0  0  0
    7.3127    2.2213   26.0463 C   0  0  0  0  0  0  0  0  0  0  0  0
    9.9496    0.5589   24.9527 C   0  0  0  0  0  0  0  0  0  0  0  0
    8.2504    0.0168   21.4265 C   0  0  0  0  0  0  0  0  0  0  0  0
    8.0155   -2.1541   22.4325 C   0  0  0  0  0  0  0  0  0  0  0  0
    6.9880   -1.9367   21.3575 C   0  0  0  0  0  0  0  0  0  0  0  0
    7.8737   -0.1194   23.8825 C   0  0  0  0  0  0  0  0  0  0  0  0
    8.6253   -0.7606   22.6923 C   0  0  3  0  0  0  0  0  0  0  0  0
    8.0937    2.2235   24.7641 C   0  0  0  0  0  0  0  0  0  0  0  0
    6.3072    0.3768   17.3417 N   0  0  0  0  0  0  0  0  0  0  0  0
    6.1197    1.7788   27.7809 N   0  0  0  0  0  0  0  0  0  0  0  0
    6.6570    1.2428   26.6254 N   0  0  0  0  0  0  0  0  0  0  0  0
    7.2305   -0.6898   20.7785 N   0  0  0  0  0  0  0  0  0  0  0  0
    8.6625    1.0133   24.4989 N   0  0  0  0  0  0  0  0  0  0  0  0
   10.3233    0.7301   26.1084 O   0  0  0  0  0  0  0  0  0  0  0  0
    8.8205    1.0412   21.0776 O   0  0  0  0  0  0  0  0  0  0  0  0
    7.2583    3.3948   26.7337 O   0  0  0  0  0  0  0  0  0  0  0  0
   13.4288   -2.1465   21.1124 Cl  0  0  0  0  0  0  0  0  0  0  0  0
    2.5443    3.3508   20.6368 H   0  0  0  0  0  0  0  0  0  0  0  0
    3.5189    2.1137   22.5166 H   0  0  0  0  0  0  0  0  0  0  0  0
    3.3421    2.9744   18.3363 H   0  0  0  0  0  0  0  0  0  0  0  0
    5.3131    0.4893   22.1569 H   0  0  0  0  0  0  0  0  0  0  0  0
   12.5188    0.5961   24.9710 H   0  0  0  0  0  0  0  0  0  0  0  0
   13.9920   -0.5226   23.3817 H   0  0  0  0  0  0  0  0  0  0  0  0
   10.6143   -2.0253   21.2266 H   0  0  0  0  0  0  0  0  0  0  0  0
    4.9151    1.7511   16.7471 H   0  0  0  0  0  0  0  0  0  0  0  0
    7.6455   -0.9765   18.1038 H   0  0  0  0  0  0  0  0  0  0  0  0
    6.2848    3.7968   28.5377 H   0  0  0  0  0  0  0  0  0  0  0  0
    7.5128   -2.5277   23.3386 H   0  0  0  0  0  0  0  0  0  0  0  0
    8.7593   -2.9102   22.1430 H   0  0  0  0  0  0  0  0  0  0  0  0
    7.0602   -2.7255   20.5716 H   0  0  0  0  0  0  0  0  0  0  0  0
    5.9526   -1.9964   21.7706 H   0  0  0  0  0  0  0  0  0  0  0  0
    6.9217    0.3182   23.5732 H   0  0  0  0  0  0  0  0  0  0  0  0
    7.6678   -0.8543   24.6617 H   0  0  0  0  0  0  0  0  0  0  0  0
    7.4480    2.4865   23.9191 H   0  0  0  0  0  0  0  0  0  0  0  0
    8.9021    2.9615   24.7977 H   0  0  0  0  0  0  0  0  0  0  0  0
  1  2  2  0  0  0  0
  1  3  1  0  0  0  0
  2  4  1  0  0  0  0
  3 11  2  0  0  0  0
  4 12  2  0  0  0  0
  5  6  2  0  0  0  0
  5 13  1  0  0  0  0
  6 16  1  0  0  0  0
  7 14  1  0  0  0  0
  7 16  2  0  0  0  0
  8 11  1  0  0  0  0
  8 25  2  0  0  0  0
  9 15  2  0  0  0  0
  9 25  1  0  0  0  0
 10 26  2  0  0  0  0
 10 32  1  0  0  0  0
 11 12  1  0  0  0  0
 12 15  1  0  0  0  0
 13 14  2  0  0  0  0
 13 18  1  0  0  0  0
 14 23  1  0  0  0  0
 15 28  1  0  0  0  0
 16 33  1  0  0  0  0
 17 24  1  0  0  0  0
 17 27  2  0  0  0  0
 17 32  1  0  0  0  0
 18 29  1  0  0  0  0
 18 30  2  0  0  0  0
 19 23  1  0  0  0  0
 19 28  1  0  0  0  0
 19 31  2  0  0  0  0
 20 21  1  0  0  0  0
 20 23  1  0  0  0  0
 21 28  1  0  0  0  0
 22 23  1  0  0  0  0
 22 29  1  0  0  0  0
 24 29  1  0  0  0  0
 26 27  1  0  0  0  0
  1 34  1  0  0  0  0
  2 35  1  0  0  0  0
  3 36  1  0  0  0  0
  4 37  1  0  0  0  0
  5 38  1  0  0  0  0
  6 39  1  0  0  0  0
  7 40  1  0  0  0  0
  8 41  1  0  0  0  0
  9 42  1  0  0  0  0
 10 43  1  0  0  0  0
 20 44  1  0  0  0  0
 20 45  1  0  0  0  0
 21 46  1  0  0  0  0
 21 47  1  0  0  0  0
 22 48  1  0  0  0  0
 22 49  1  0  0  0  0
 24 50  1  0  0  0  0
 24 51  1  0  0  0  0
M  END
> <scaffold>
tetrahydroisoquinoline-5spiro-isoquinoline

> <compound>
PET-UNK-aa57768f-7

> <compound_smiles>
c1ccc2c(c1)cncc2N3CCC4(C3=O)CN(C(=O)c5c4cc(cc5)Cl)Cc6nnco6

> <enantiomer_smiles>
c1ccc2c(c1)cncc2N3CC[C@@]4(C3=O)CN(C(=O)c5c4cc(cc5)Cl)Cc6nnco6

> <clash_score>
0

> <docking_score>
3.4028234663852886e+38

> <overlap_score>
0.9861321449279785

> <MMFF_internal_energy>
164.16142083435628

> <docked_smiles>
c1ccc2c(c1)cncc2N3CC[C@@]4(C3=O)CN(C(=O)c5c4cc(cc5)Cl)Cc6nnco6

$$$$
LUO-POS-b4dec3be-2_1
  -OEChem-01042202313D

 55 59  0     1  0  0  0  0  0999 V2000
    3.7877    2.4205   19.1658 C   0  0  0  0  0  0  0  0  0  0  0  0
   12.0781    0.0316   24.1532 C   0  0  0  0  0  0  0  0  0  0  0  0
    3.3444    2.6278   20.4409 C   0  0  0  0  0  0  0  0  0  0  0  0
   12.9147   -0.6032   23.2559 C   0  0  0  0  0  0  0  0  0  0  0  0
    4.8986    1.0232   21.2985 C   0  0  0  0  0  0  0  0  0  0  0  0
   11.0005   -1.4332   22.0435 C   0  0  0  0  0  0  0  0  0  0  0  0
    5.3288    1.2339   17.6062 C   0  0  0  0  0  0  0  0  0  0  0  0
    6.8449   -0.2893   18.3747 C   0  0  0  0  0  0  0  0  0  0  0  0
    4.8238    1.4906   18.9051 C   0  0  0  0  0  0  0  0  0  0  0  0
    5.3995    0.7732   19.9944 C   0  0  0  0  0  0  0  0  0  0  0  0
   10.7056   -0.0626   23.9890 C   0  0  0  0  0  0  0  0  0  0  0  0
   10.1421   -0.7766   22.9242 C   0  0  0  0  0  0  0  0  0  0  0  0
    6.4452   -0.1472   19.6975 C   0  0  0  0  0  0  0  0  0  0  0  0
    3.8974    1.9290   21.5048 C   0  0  0  0  0  0  0  0  0  0  0  0
   12.3697   -1.3298   22.2224 C   0  0  0  0  0  0  0  0  0  0  0  0
    8.2504    0.0168   21.4265 C   0  0  0  0  0  0  0  0  0  0  0  0
    6.7820    2.5959   25.0030 C   0  0  0  0  0  0  0  0  0  0  0  0
    9.9496    0.5589   24.9527 C   0  0  0  0  0  0  0  0  0  0  0  0
    8.0155   -2.1541   22.4325 C   0  0  0  0  0  0  0  0  0  0  0  0
    6.9880   -1.9367   21.3575 C   0  0  0  0  0  0  0  0  0  0  0  0
    7.8737   -0.1194   23.8825 C   0  0  0  0  0  0  0  0  0  0  0  0
    8.6253   -0.7606   22.6923 C   0  0  2  0  0  0  0  0  0  0  0  0
    4.5058    3.4347   25.5056 C   0  0  0  0  0  0  0  0  0  0  0  0
    7.8614    1.7130   25.5771 C   0  0  0  0  0  0  0  0  0  0  0  0
    6.3072    0.3768   17.3417 N   0  0  0  0  0  0  0  0  0  0  0  0
    7.2305   -0.6898   20.7785 N   0  0  0  0  0  0  0  0  0  0  0  0
    5.6736    2.6525   25.8345 N   0  0  0  0  0  0  0  0  0  0  0  0
    8.6625    1.0133   24.4989 N   0  3  3  0  0  0  0  0  0  0  0  0
    8.7596    1.0926   21.1315 O   0  0  0  0  0  0  0  0  0  0  0  0
    6.8918    3.1841   23.9305 O   0  0  0  0  0  0  0  0  0  0  0  0
    3.4330    2.1555   22.7513 F   0  0  0  0  0  0  0  0  0  0  0  0
   13.4297   -2.1368   21.1057 Cl  0  0  0  0  0  0  0  0  0  0  0  0
    3.3411    2.9735   18.3363 H   0  0  0  0  0  0  0  0  0  0  0  0
   12.5050    0.6048   24.9681 H   0  0  0  0  0  0  0  0  0  0  0  0
    2.5441    3.3506   20.6360 H   0  0  0  0  0  0  0  0  0  0  0  0
   13.9930   -0.5095   23.3724 H   0  0  0  0  0  0  0  0  0  0  0  0
    5.3117    0.4882   22.1567 H   0  0  0  0  0  0  0  0  0  0  0  0
   10.6142   -2.0081   21.2166 H   0  0  0  0  0  0  0  0  0  0  0  0
    4.9147    1.7515   16.7472 H   0  0  0  0  0  0  0  0  0  0  0  0
    7.6456   -0.9763   18.1039 H   0  0  0  0  0  0  0  0  0  0  0  0
    9.7670   -0.1152   25.8332 H   0  0  0  0  0  0  0  0  0  0  0  0
   10.4598    1.4695   25.3669 H   0  0  0  0  0  0  0  0  0  0  0  0
    7.5772   -2.6002   23.3388 H   0  0  0  0  0  0  0  0  0  0  0  0
    8.7543   -2.8832   22.0693 H   0  0  0  0  0  0  0  0  0  0  0  0
    7.0238   -2.7509   20.5939 H   0  0  0  0  0  0  0  0  0  0  0  0
    5.9557   -1.9486   21.7819 H   0  0  0  0  0  0  0  0  0  0  0  0
    6.9025    0.3058   23.5774 H   0  0  0  0  0  0  0  0  0  0  0  0
    7.6854   -0.8462   24.6923 H   0  0  0  0  0  0  0  0  0  0  0  0
    4.6058    4.4423   25.9355 H   0  0  0  0  0  0  0  0  0  0  0  0
    4.4113    3.5103   24.4123 H   0  0  0  0  0  0  0  0  0  0  0  0
    3.6101    2.9474   25.9183 H   0  0  0  0  0  0  0  0  0  0  0  0
    7.4220    0.9185   26.1866 H   0  0  0  0  0  0  0  0  0  0  0  0
    8.5620    2.3059   26.1715 H   0  0  0  0  0  0  0  0  0  0  0  0
    5.6632    2.1115   26.6945 H   0  0  0  0  0  0  0  0  0  0  0  0
    8.7911    1.7237   23.7513 H   0  0  0  0  0  0  0  0  0  0  0  0
  1  3  2  0  0  0  0
  1  9  1  0  0  0  0
  2  4  2  0  0  0  0
  2 11  1  0  0  0  0
  3 14  1  0  0  0  0
  4 15  1  0  0  0  0
  5 10  1  0  0  0  0
  5 14  2  0  0  0  0
  6 12  1  0  0  0  0
  6 15  2  0  0  0  0
  7  9  2  0  0  0  0
  7 25  1  0  0  0  0
  8 13  1  0  0  0  0
  8 25  2  0  0  0  0
  9 10  1  0  0  0  0
 10 13  2  0  0  0  0
 11 12  2  0  0  0  0
 11 18  1  0  0  0  0
 12 22  1  6  0  0  0
 13 26  1  0  0  0  0
 14 31  1  0  0  0  0
 15 32  1  0  0  0  0
 16 22  1  1  0  0  0
 16 26  1  0  0  0  0
 16 29  2  0  0  0  0
 17 24  1  0  0  0  0
 17 27  1  0  0  0  0
 17 30  2  0  0  0  0
 18 28  1  0  0  0  0
 19 20  1  0  0  0  0
 19 22  1  1  0  0  0
 20 26  1  0  0  0  0
 21 22  1  6  0  0  0
 21 28  1  0  0  0  0
 23 27  1  0  0  0  0
 24 28  1  0  0  0  0
  1 33  1  0  0  0  0
  2 34  1  0  0  0  0
  3 35  1  0  0  0  0
  4 36  1  0  0  0  0
  5 37  1  0  0  0  0
  6 38  1  0  0  0  0
  7 39  1  0  0  0  0
  8 40  1  0  0  0  0
 18 41  1  0  0  0  0
 18 42  1  0  0  0  0
 19 43  1  0  0  0  0
 19 44  1  0  0  0  0
 20 45  1  0  0  0  0
 20 46  1  0  0  0  0
 21 47  1  0  0  0  0
 21 48  1  0  0  0  0
 23 49  1  0  0  0  0
 23 50  1  0  0  0  0
 23 51  1  0  0  0  0
 24 52  1  0  0  0  0
 24 53  1  0  0  0  0
 27 54  1  0  0  0  0
 28 55  1  0  0  0  0
M  CHG  1  28   1
M  END
> <scaffold>
tetrahydroisoquinoline-5spiro-isoquinoline

> <compound>
LUO-POS-b4dec3be-2

> <compound_smiles>
CNC(=O)CN1Cc2ccc(cc2[C@]3(C1)CCN(C3=O)c4cncc5c4cc(cc5)F)Cl

> <enantiomer_smiles>
CNC(=O)C[N@@]1Cc2ccc(cc2[C@]3(C1)CCN(C3=O)c4cncc5c4cc(cc5)F)Cl

> <clash_score>
0

> <docking_score>
3.4028234663852886e+38

> <overlap_score>
0.9857714176177979

> <MMFF_internal_energy>
147.57752000621352

> <docked_smiles>
CNC(=O)C[N@H+]1Cc2ccc(cc2[C@]3(C1)CCN(C3=O)c4cncc5c4cc(cc5)F)Cl

$$$$
EDJ-MED-ede5c6cb-1_1
  -OEChem-01042202313D

 53 57  0     1  0  0  0  0  0999 V2000
    4.8986    1.0232   21.2985 C   0  0  0  0  0  0  0  0  0  0  0  0
    3.8974    1.9290   21.5048 C   0  0  0  0  0  0  0  0  0  0  0  0
   12.0781    0.0316   24.1532 C   0  0  0  0  0  0  0  0  0  0  0  0
   12.9147   -0.6032   23.2559 C   0  0  0  0  0  0  0  0  0  0  0  0
    3.7877    2.4205   19.1658 C   0  0  0  0  0  0  0  0  0  0  0  0
   11.0005   -1.4332   22.0435 C   0  0  0  0  0  0  0  0  0  0  0  0
    5.3288    1.2339   17.6062 C   0  0  0  0  0  0  0  0  0  0  0  0
    6.8449   -0.2893   18.3747 C   0  0  0  0  0  0  0  0  0  0  0  0
    5.3995    0.7732   19.9944 C   0  0  0  0  0  0  0  0  0  0  0  0
    4.8238    1.4906   18.9051 C   0  0  0  0  0  0  0  0  0  0  0  0
   10.1421   -0.7766   22.9242 C   0  0  0  0  0  0  0  0  0  0  0  0
    6.4452   -0.1472   19.6975 C   0  0  0  0  0  0  0  0  0  0  0  0
    3.3444    2.6278   20.4409 C   0  0  0  0  0  0  0  0  0  0  0  0
   10.7056   -0.0626   23.9890 C   0  0  0  0  0  0  0  0  0  0  0  0
   12.3697   -1.3298   22.2224 C   0  0  0  0  0  0  0  0  0  0  0  0
    8.2504    0.0168   21.4265 C   0  0  0  0  0  0  0  0  0  0  0  0
    8.0155   -2.1541   22.4325 C   0  0  0  0  0  0  0  0  0  0  0  0
    7.8737   -0.1194   23.8825 C   0  0  0  0  0  0  0  0  0  0  0  0
    6.9880   -1.9367   21.3575 C   0  0  0  0  0  0  0  0  0  0  0  0
    8.6625    1.0133   24.4989 C   0  0  0  0  0  0  0  0  0  0  0  0
    8.6253   -0.7606   22.6923 C   0  0  3  0  0  0  0  0  0  0  0  0
    0.2025    2.0833   21.4737 C   0  0  0  0  0  0  0  0  0  0  0  0
    6.3072    0.3768   17.3417 N   0  0  0  0  0  0  0  0  0  0  0  0
    7.2305   -0.6898   20.7785 N   0  0  0  0  0  0  0  0  0  0  0  0
    2.2947    3.5766   20.6954 N   0  0  0  0  0  0  0  0  0  0  0  0
    8.7566    1.0941   21.1311 O   0  0  0  0  0  0  0  0  0  0  0  0
    9.7120   -0.4300   26.1378 O   0  0  0  0  0  0  0  0  0  0  0  0
   10.7467    1.7884   25.4917 O   0  0  0  0  0  0  0  0  0  0  0  0
   -0.1233    4.3729   20.2825 O   0  0  0  0  0  0  0  0  0  0  0  0
    0.7362    2.4261   18.9350 O   0  0  0  0  0  0  0  0  0  0  0  0
    9.9496    0.5589   24.9527 S   0  0  0  0  0  0  0  0  0  0  0  0
    0.7022    3.1849   20.1694 S   0  0  0  0  0  0  0  0  0  0  0  0
   13.4302   -2.1437   21.1108 Cl  0  0  0  0  0  0  0  0  0  0  0  0
    5.3129    0.4891   22.1565 H   0  0  0  0  0  0  0  0  0  0  0  0
    3.5264    2.1066   22.5215 H   0  0  0  0  0  0  0  0  0  0  0  0
   12.5141    0.5961   24.9741 H   0  0  0  0  0  0  0  0  0  0  0  0
   13.9930   -0.5214   23.3817 H   0  0  0  0  0  0  0  0  0  0  0  0
    3.3490    2.9700   18.3283 H   0  0  0  0  0  0  0  0  0  0  0  0
   10.6120   -2.0228   21.2300 H   0  0  0  0  0  0  0  0  0  0  0  0
    4.9144    1.7516   16.7476 H   0  0  0  0  0  0  0  0  0  0  0  0
    7.6459   -0.9758   18.1038 H   0  0  0  0  0  0  0  0  0  0  0  0
    7.5792   -2.6139   23.3283 H   0  0  0  0  0  0  0  0  0  0  0  0
    8.7727   -2.8629   22.0635 H   0  0  0  0  0  0  0  0  0  0  0  0
    7.6629   -0.8655   24.6523 H   0  0  0  0  0  0  0  0  0  0  0  0
    6.9026    0.2573   23.5461 H   0  0  0  0  0  0  0  0  0  0  0  0
    7.0247   -2.7501   20.5941 H   0  0  0  0  0  0  0  0  0  0  0  0
    5.9565   -1.9488   21.7820 H   0  0  0  0  0  0  0  0  0  0  0  0
    8.7048    1.8247   23.7053 H   0  0  0  0  0  0  0  0  0  0  0  0
    8.0006    1.4860   25.2925 H   0  0  0  0  0  0  0  0  0  0  0  0
   -0.8147    1.7459   21.2687 H   0  0  0  0  0  0  0  0  0  0  0  0
    0.8901    1.2364   21.4915 H   0  0  0  0  0  0  0  0  0  0  0  0
    0.2418    2.6280   22.4183 H   0  0  0  0  0  0  0  0  0  0  0  0
    2.3417    4.0295   21.6232 H   0  0  0  0  0  0  0  0  0  0  0  0
  1  2  2  0  0  0  0
  1  9  1  0  0  0  0
  2 13  1  0  0  0  0
  3  4  2  0  0  0  0
  3 14  1  0  0  0  0
  4 15  1  0  0  0  0
  5 10  1  0  0  0  0
  5 13  2  0  0  0  0
  6 11  1  0  0  0  0
  6 15  2  0  0  0  0
  7 10  2  0  0  0  0
  7 23  1  0  0  0  0
  8 12  1  0  0  0  0
  8 23  2  0  0  0  0
  9 10  1  0  0  0  0
  9 12  2  0  0  0  0
 11 14  2  0  0  0  0
 11 21  1  0  0  0  0
 12 24  1  0  0  0  0
 13 25  1  0  0  0  0
 14 31  1  0  0  0  0
 15 33  1  0  0  0  0
 16 21  1  0  0  0  0
 16 24  1  0  0  0  0
 16 26  2  0  0  0  0
 17 19  1  0  0  0  0
 17 21  1  0  0  0  0
 18 20  1  0  0  0  0
 18 21  1  0  0  0  0
 19 24  1  0  0  0  0
 20 31  1  0  0  0  0
 22 32  1  0  0  0  0
 25 32  1  0  0  0  0
 27 31  2  0  0  0  0
 28 31  2  0  0  0  0
 29 32  2  0  0  0  0
 30 32  2  0  0  0  0
  1 34  1  0  0  0  0
  2 35  1  0  0  0  0
  3 36  1  0  0  0  0
  4 37  1  0  0  0  0
  5 38  1  0  0  0  0
  6 39  1  0  0  0  0
  7 40  1  0  0  0  0
  8 41  1  0  0  0  0
 17 42  1  0  0  0  0
 17 43  1  0  0  0  0
 18 44  1  0  0  0  0
 18 45  1  0  0  0  0
 19 46  1  0  0  0  0
 19 47  1  0  0  0  0
 20 48  1  0  0  0  0
 20 49  1  0  0  0  0
 22 50  1  0  0  0  0
 22 51  1  0  0  0  0
 22 52  1  0  0  0  0
 25 53  1  0  0  0  0
M  END
> <scaffold>
tetralinlike-5spiro-isoquinoline

> <compound>
EDJ-MED-ede5c6cb-1

> <compound_smiles>
CS(=O)(=O)Nc1ccc2c(c1)cncc2N3CCC4(C3=O)CCS(=O)(=O)c5c4cc(cc5)Cl

> <enantiomer_smiles>
CS(=O)(=O)Nc1ccc2c(c1)cncc2N3CC[C@@]4(C3=O)CCS(=O)(=O)c5c4cc(cc5)Cl

> <clash_score>
2.359175848665573

> <docking_score>
3.4028234663852886e+38

> <overlap_score>
1.0

> <MMFF_internal_energy>
242.36613105942618

> <docked_smiles>
CS(=O)(=O)Nc1ccc2c(c1)cncc2N3CC[C@@]4(C3=O)CCS(=O)(=O)c5c4cc(cc5)Cl

$$$$
LUO-POS-8c3e556a-2_1
  -OEChem-01042202313D

 53 57  0     1  0  0  0  0  0999 V2000
    3.7877    2.4205   19.1658 C   0  0  0  0  0  0  0  0  0  0  0  0
   12.0781    0.0316   24.1532 C   0  0  0  0  0  0  0  0  0  0  0  0
    3.3444    2.6278   20.4409 C   0  0  0  0  0  0  0  0  0  0  0  0
   12.9147   -0.6032   23.2559 C   0  0  0  0  0  0  0  0  0  0  0  0
    4.8986    1.0232   21.2985 C   0  0  0  0  0  0  0  0  0  0  0  0
   11.0005   -1.4332   22.0435 C   0  0  0  0  0  0  0  0  0  0  0  0
    5.3288    1.2339   17.6062 C   0  0  0  0  0  0  0  0  0  0  0  0
    6.8449   -0.2893   18.3747 C   0  0  0  0  0  0  0  0  0  0  0  0
    4.8238    1.4906   18.9051 C   0  0  0  0  0  0  0  0  0  0  0  0
    5.3995    0.7732   19.9944 C   0  0  0  0  0  0  0  0  0  0  0  0
   10.7056   -0.0626   23.9890 C   0  0  0  0  0  0  0  0  0  0  0  0
   10.1421   -0.7766   22.9242 C   0  0  0  0  0  0  0  0  0  0  0  0
    6.4452   -0.1472   19.6975 C   0  0  0  0  0  0  0  0  0  0  0  0
    3.8974    1.9290   21.5048 C   0  0  0  0  0  0  0  0  0  0  0  0
   12.3697   -1.3298   22.2224 C   0  0  0  0  0  0  0  0  0  0  0  0
    9.9496    0.5589   24.9527 C   0  0  0  0  0  0  0  0  0  0  0  0
    8.2504    0.0168   21.4265 C   0  0  0  0  0  0  0  0  0  0  0  0
    7.2792    2.1116   26.0358 C   0  0  0  0  0  0  0  0  0  0  0  0
    8.0155   -2.1541   22.4325 C   0  0  0  0  0  0  0  0  0  0  0  0
    6.9880   -1.9367   21.3575 C   0  0  0  0  0  0  0  0  0  0  0  0
    7.8737   -0.1194   23.8825 C   0  0  0  0  0  0  0  0  0  0  0  0
    8.6253   -0.7606   22.6923 C   0  0  2  0  0  0  0  0  0  0  0  0
    6.5261    3.5003   27.9641 C   0  0  0  0  0  0  0  0  0  0  0  0
    8.0895    2.2244   24.7698 C   0  0  0  0  0  0  0  0  0  0  0  0
    6.3072    0.3768   17.3417 N   0  0  0  0  0  0  0  0  0  0  0  0
    7.2305   -0.6898   20.7785 N   0  0  0  0  0  0  0  0  0  0  0  0
    8.6625    1.0133   24.4989 N   0  0  0  0  0  0  0  0  0  0  0  0
    7.2361    3.3189   26.7184 N   0  0  0  0  0  0  0  0  0  0  0  0
   10.3247    0.7292   26.1099 O   0  0  0  0  0  0  0  0  0  0  0  0
    8.7593    1.0936   21.1345 O   0  0  0  0  0  0  0  0  0  0  0  0
    6.7321    1.0733   26.3978 O   0  0  0  0  0  0  0  0  0  0  0  0
    3.3016    2.2179   23.1046 Cl  0  0  0  0  0  0  0  0  0  0  0  0
   13.4296   -2.1374   21.1065 Cl  0  0  0  0  0  0  0  0  0  0  0  0
    3.3428    2.9749   18.3362 H   0  0  0  0  0  0  0  0  0  0  0  0
   12.5188    0.5915   24.9741 H   0  0  0  0  0  0  0  0  0  0  0  0
    2.5426    3.3541   20.6217 H   0  0  0  0  0  0  0  0  0  0  0  0
   13.9920   -0.5158   23.3776 H   0  0  0  0  0  0  0  0  0  0  0  0
    5.3233    0.4799   22.1471 H   0  0  0  0  0  0  0  0  0  0  0  0
   10.6146   -2.0177   21.2211 H   0  0  0  0  0  0  0  0  0  0  0  0
    4.9142    1.7509   16.7472 H   0  0  0  0  0  0  0  0  0  0  0  0
    7.6458   -0.9763   18.1041 H   0  0  0  0  0  0  0  0  0  0  0  0
    7.5792   -2.6155   23.3299 H   0  0  0  0  0  0  0  0  0  0  0  0
    8.7859   -2.8460   22.0568 H   0  0  0  0  0  0  0  0  0  0  0  0
    7.0238   -2.7512   20.5947 H   0  0  0  0  0  0  0  0  0  0  0  0
    5.9568   -1.9488   21.7835 H   0  0  0  0  0  0  0  0  0  0  0  0
    6.9033    0.2704   23.5727 H   0  0  0  0  0  0  0  0  0  0  0  0
    7.7066   -0.8358   24.6899 H   0  0  0  0  0  0  0  0  0  0  0  0
    5.4924    3.8130   27.7553 H   0  0  0  0  0  0  0  0  0  0  0  0
    6.5168    2.5525   28.5221 H   0  0  0  0  0  0  0  0  0  0  0  0
    7.0290    4.2737   28.5633 H   0  0  0  0  0  0  0  0  0  0  0  0
    7.4384    2.5157   23.9403 H   0  0  0  0  0  0  0  0  0  0  0  0
    8.8731    2.9771   24.8968 H   0  0  0  0  0  0  0  0  0  0  0  0
    7.7281    4.1148   26.3229 H   0  0  0  0  0  0  0  0  0  0  0  0
  1  3  2  0  0  0  0
  1  9  1  0  0  0  0
  2  4  2  0  0  0  0
  2 11  1  0  0  0  0
  3 14  1  0  0  0  0
  4 15  1  0  0  0  0
  5 10  1  0  0  0  0
  5 14  2  0  0  0  0
  6 12  1  0  0  0  0
  6 15  2  0  0  0  0
  7  9  2  0  0  0  0
  7 25  1  0  0  0  0
  8 13  1  0  0  0  0
  8 25  2  0  0  0  0
  9 10  1  0  0  0  0
 10 13  2  0  0  0  0
 11 12  2  0  0  0  0
 11 16  1  0  0  0  0
 12 22  1  6  0  0  0
 13 26  1  0  0  0  0
 14 32  1  0  0  0  0
 15 33  1  0  0  0  0
 16 27  1  0  0  0  0
 16 29  2  0  0  0  0
 17 22  1  6  0  0  0
 17 26  1  0  0  0  0
 17 30  2  0  0  0  0
 18 24  1  0  0  0  0
 18 28  1  0  0  0  0
 18 31  2  0  0  0  0
 19 20  1  0  0  0  0
 19 22  1  1  0  0  0
 20 26  1  0  0  0  0
 21 22  1  1  0  0  0
 21 27  1  0  0  0  0
 23 28  1  0  0  0  0
 24 27  1  0  0  0  0
  1 34  1  0  0  0  0
  2 35  1  0  0  0  0
  3 36  1  0  0  0  0
  4 37  1  0  0  0  0
  5 38  1  0  0  0  0
  6 39  1  0  0  0  0
  7 40  1  0  0  0  0
  8 41  1  0  0  0  0
 19 42  1  0  0  0  0
 19 43  1  0  0  0  0
 20 44  1  0  0  0  0
 20 45  1  0  0  0  0
 21 46  1  0  0  0  0
 21 47  1  0  0  0  0
 23 48  1  0  0  0  0
 23 49  1  0  0  0  0
 23 50  1  0  0  0  0
 24 51  1  0  0  0  0
 24 52  1  0  0  0  0
 28 53  1  0  0  0  0
M  END
> <scaffold>
tetrahydroisoquinoline-5spiro-isoquinoline

> <compound>
LUO-POS-8c3e556a-2

> <compound_smiles>
CNC(=O)CN1C[C@@]2(CCN(C2=O)c3cncc4c3cc(cc4)Cl)c5cc(ccc5C1=O)Cl

> <enantiomer_smiles>
CNC(=O)CN1C[C@@]2(CCN(C2=O)c3cncc4c3cc(cc4)Cl)c5cc(ccc5C1=O)Cl

> <clash_score>
0

> <docking_score>
3.4028234663852886e+38

> <overlap_score>
1.0

> <MMFF_internal_energy>
151.66662574307347

> <docked_smiles>
CNC(=O)CN1C[C@@]2(CCN(C2=O)c3cncc4c3cc(cc4)Cl)c5cc(ccc5C1=O)Cl

$$$$
12_-111-3e02a1cd-2_1
  -OEChem-01042202313D

 51 55  0     1  0  0  0  0  0999 V2000
    3.3444    2.6278   20.4409 C   0  0  0  0  0  0  0  0  0  0  0  0
    3.8974    1.9290   21.5048 C   0  0  0  0  0  0  0  0  0  0  0  0
    3.7877    2.4205   19.1658 C   0  0  0  0  0  0  0  0  0  0  0  0
    4.8986    1.0232   21.2985 C   0  0  0  0  0  0  0  0  0  0  0  0
   12.0781    0.0316   24.1532 C   0  0  0  0  0  0  0  0  0  0  0  0
   12.9147   -0.6032   23.2559 C   0  0  0  0  0  0  0  0  0  0  0  0
   11.0005   -1.4332   22.0435 C   0  0  0  0  0  0  0  0  0  0  0  0
    5.3288    1.2339   17.6062 C   0  0  0  0  0  0  0  0  0  0  0  0
    6.8449   -0.2893   18.3747 C   0  0  0  0  0  0  0  0  0  0  0  0
    4.8238    1.4906   18.9051 C   0  0  0  0  0  0  0  0  0  0  0  0
    5.3995    0.7732   19.9944 C   0  0  0  0  0  0  0  0  0  0  0  0
   10.7056   -0.0626   23.9890 C   0  0  0  0  0  0  0  0  0  0  0  0
   10.1421   -0.7766   22.9242 C   0  0  0  0  0  0  0  0  0  0  0  0
    6.4452   -0.1472   19.6975 C   0  0  0  0  0  0  0  0  0  0  0  0
   12.3697   -1.3298   22.2224 C   0  0  0  0  0  0  0  0  0  0  0  0
    9.9496    0.5589   24.9527 C   0  0  0  0  0  0  0  0  0  0  0  0
    6.9880   -1.9367   21.3575 C   0  0  0  0  0  0  0  0  0  0  0  0
    8.2504    0.0168   21.4265 C   0  0  0  0  0  0  0  0  0  0  0  0
    7.2381    2.1806   26.0281 C   0  0  0  0  0  0  0  0  0  0  0  0
    8.0155   -2.1541   22.4325 C   0  0  0  0  0  0  0  0  0  0  0  0
    7.8737   -0.1194   23.8825 C   0  0  0  0  0  0  0  0  0  0  0  0
    8.6253   -0.7606   22.6923 C   0  0  1  0  0  0  0  0  0  0  0  0
    6.4427    0.8370   27.8051 C   0  0  0  0  0  0  0  0  0  0  0  0
    8.0876    2.2170   24.7795 C   0  0  0  0  0  0  0  0  0  0  0  0
    6.3072    0.3768   17.3417 N   0  0  0  0  0  0  0  0  0  0  0  0
    7.2305   -0.6898   20.7785 N   0  0  0  0  0  0  0  0  0  0  0  0
    8.6625    1.0133   24.4989 N   0  0  0  0  0  0  0  0  0  0  0  0
   10.3251    0.7340   26.1064 O   0  0  0  0  0  0  0  0  0  0  0  0
    6.1256   -2.7638   21.0990 O   0  0  0  0  0  0  0  0  0  0  0  0
    8.7812    1.0656   21.0999 O   0  0  0  0  0  0  0  0  0  0  0  0
    6.6399    3.1692   26.4397 O   0  0  0  0  0  0  0  0  0  0  0  0
    7.2270    0.9513   26.6130 O   0  0  0  0  0  0  0  0  0  0  0  0
   13.4287   -2.1485   21.1132 Cl  0  0  0  0  0  0  0  0  0  0  0  0
    2.5443    3.3508   20.6368 H   0  0  0  0  0  0  0  0  0  0  0  0
    3.5189    2.1137   22.5166 H   0  0  0  0  0  0  0  0  0  0  0  0
    3.3421    2.9744   18.3363 H   0  0  0  0  0  0  0  0  0  0  0  0
    5.3131    0.4893   22.1569 H   0  0  0  0  0  0  0  0  0  0  0  0
   12.5193    0.5899   24.9743 H   0  0  0  0  0  0  0  0  0  0  0  0
   13.9921   -0.5285   23.3850 H   0  0  0  0  0  0  0  0  0  0  0  0
   10.6066   -2.0252   21.2291 H   0  0  0  0  0  0  0  0  0  0  0  0
    4.9151    1.7511   16.7471 H   0  0  0  0  0  0  0  0  0  0  0  0
    7.6455   -0.9765   18.1038 H   0  0  0  0  0  0  0  0  0  0  0  0
    7.5414   -2.5801   23.3234 H   0  0  0  0  0  0  0  0  0  0  0  0
    8.7503   -2.8731   22.0498 H   0  0  0  0  0  0  0  0  0  0  0  0
    6.9287    0.3240   23.5694 H   0  0  0  0  0  0  0  0  0  0  0  0
    7.6686   -0.8487   24.6632 H   0  0  0  0  0  0  0  0  0  0  0  0
    6.5054   -0.1850   28.1868 H   0  0  0  0  0  0  0  0  0  0  0  0
    5.4031    1.0916   27.5842 H   0  0  0  0  0  0  0  0  0  0  0  0
    6.8335    1.5283   28.5554 H   0  0  0  0  0  0  0  0  0  0  0  0
    8.8851    2.9523   24.9142 H   0  0  0  0  0  0  0  0  0  0  0  0
    7.4590    2.4845   23.9264 H   0  0  0  0  0  0  0  0  0  0  0  0
  1  2  2  0  0  0  0
  1  3  1  0  0  0  0
  2  4  1  0  0  0  0
  3 10  2  0  0  0  0
  4 11  2  0  0  0  0
  5  6  2  0  0  0  0
  5 12  1  0  0  0  0
  6 15  1  0  0  0  0
  7 13  1  0  0  0  0
  7 15  2  0  0  0  0
  8 10  1  0  0  0  0
  8 25  2  0  0  0  0
  9 14  2  0  0  0  0
  9 25  1  0  0  0  0
 10 11  1  0  0  0  0
 11 14  1  0  0  0  0
 12 13  2  0  0  0  0
 12 16  1  0  0  0  0
 13 22  1  1  0  0  0
 14 26  1  0  0  0  0
 15 33  1  0  0  0  0
 16 27  1  0  0  0  0
 16 28  2  0  0  0  0
 17 20  1  0  0  0  0
 17 26  1  0  0  0  0
 17 29  2  0  0  0  0
 18 22  1  1  0  0  0
 18 26  1  0  0  0  0
 18 30  2  0  0  0  0
 19 24  1  0  0  0  0
 19 31  2  0  0  0  0
 19 32  1  0  0  0  0
 20 22  1  6  0  0  0
 21 22  1  6  0  0  0
 21 27  1  0  0  0  0
 23 32  1  0  0  0  0
 24 27  1  0  0  0  0
  1 34  1  0  0  0  0
  2 35  1  0  0  0  0
  3 36  1  0  0  0  0
  4 37  1  0  0  0  0
  5 38  1  0  0  0  0
  6 39  1  0  0  0  0
  7 40  1  0  0  0  0
  8 41  1  0  0  0  0
  9 42  1  0  0  0  0
 20 43  1  0  0  0  0
 20 44  1  0  0  0  0
 21 45  1  0  0  0  0
 21 46  1  0  0  0  0
 23 47  1  0  0  0  0
 23 48  1  0  0  0  0
 23 49  1  0  0  0  0
 24 50  1  0  0  0  0
 24 51  1  0  0  0  0
M  END
> <scaffold>
tetrahydroisoquinoline-5spiro-isoquinoline

> <compound>
12_-111-3e02a1cd-2

> <compound_smiles>
COC(=O)CN1C[C@]2(CC(=O)N(C2=O)c3cncc4c3cccc4)c5cc(ccc5C1=O)Cl

> <enantiomer_smiles>
COC(=O)CN1C[C@]2(CC(=O)N(C2=O)c3cncc4c3cccc4)c5cc(ccc5C1=O)Cl

> <clash_score>
0

> <docking_score>
3.4028234663852886e+38

> <overlap_score>
1.0152945518493652

> <MMFF_internal_energy>
137.6887222221544

> <docked_smiles>
COC(=O)CN1C[C@]2(CC(=O)N(C2=O)c3cncc4c3cccc4)c5cc(ccc5C1=O)Cl

$$$$
LUO-POS-8c3e556a-1_1
  -OEChem-01042202313D

 53 57  0     1  0  0  0  0  0999 V2000
    3.7877    2.4205   19.1658 C   0  0  0  0  0  0  0  0  0  0  0  0
   12.0781    0.0316   24.1532 C   0  0  0  0  0  0  0  0  0  0  0  0
    3.3444    2.6278   20.4409 C   0  0  0  0  0  0  0  0  0  0  0  0
   12.9147   -0.6032   23.2559 C   0  0  0  0  0  0  0  0  0  0  0  0
    4.8986    1.0232   21.2985 C   0  0  0  0  0  0  0  0  0  0  0  0
   11.0005   -1.4332   22.0435 C   0  0  0  0  0  0  0  0  0  0  0  0
    5.3288    1.2339   17.6062 C   0  0  0  0  0  0  0  0  0  0  0  0
    6.8449   -0.2893   18.3747 C   0  0  0  0  0  0  0  0  0  0  0  0
    4.8238    1.4906   18.9051 C   0  0  0  0  0  0  0  0  0  0  0  0
    5.3995    0.7732   19.9944 C   0  0  0  0  0  0  0  0  0  0  0  0
   10.7056   -0.0626   23.9890 C   0  0  0  0  0  0  0  0  0  0  0  0
   10.1421   -0.7766   22.9242 C   0  0  0  0  0  0  0  0  0  0  0  0
    6.4452   -0.1472   19.6975 C   0  0  0  0  0  0  0  0  0  0  0  0
    3.8974    1.9290   21.5048 C   0  0  0  0  0  0  0  0  0  0  0  0
   12.3697   -1.3298   22.2224 C   0  0  0  0  0  0  0  0  0  0  0  0
    9.9496    0.5589   24.9527 C   0  0  0  0  0  0  0  0  0  0  0  0
    8.2504    0.0168   21.4265 C   0  0  0  0  0  0  0  0  0  0  0  0
    7.2900    2.1445   26.0369 C   0  0  0  0  0  0  0  0  0  0  0  0
    8.0155   -2.1541   22.4325 C   0  0  0  0  0  0  0  0  0  0  0  0
    6.9880   -1.9367   21.3575 C   0  0  0  0  0  0  0  0  0  0  0  0
    7.8737   -0.1194   23.8825 C   0  0  0  0  0  0  0  0  0  0  0  0
    8.6253   -0.7606   22.6923 C   0  0  1  0  0  0  0  0  0  0  0  0
    6.5711    3.5767   27.9463 C   0  0  0  0  0  0  0  0  0  0  0  0
    8.0937    2.2235   24.7641 C   0  0  0  0  0  0  0  0  0  0  0  0
    6.3072    0.3768   17.3417 N   0  0  0  0  0  0  0  0  0  0  0  0
    7.2305   -0.6898   20.7785 N   0  0  0  0  0  0  0  0  0  0  0  0
    8.6625    1.0133   24.4989 N   0  0  0  0  0  0  0  0  0  0  0  0
    7.2701    3.3635   26.6994 N   0  0  0  0  0  0  0  0  0  0  0  0
   10.3233    0.7301   26.1084 O   0  0  0  0  0  0  0  0  0  0  0  0
    8.8205    1.0412   21.0776 O   0  0  0  0  0  0  0  0  0  0  0  0
    6.7292    1.1210   26.4195 O   0  0  0  0  0  0  0  0  0  0  0  0
    3.3016    2.2179   23.1046 Cl  0  0  0  0  0  0  0  0  0  0  0  0
   13.4288   -2.1465   21.1124 Cl  0  0  0  0  0  0  0  0  0  0  0  0
    3.3428    2.9749   18.3362 H   0  0  0  0  0  0  0  0  0  0  0  0
   12.5188    0.5961   24.9710 H   0  0  0  0  0  0  0  0  0  0  0  0
    2.5426    3.3541   20.6217 H   0  0  0  0  0  0  0  0  0  0  0  0
   13.9920   -0.5226   23.3817 H   0  0  0  0  0  0  0  0  0  0  0  0
    5.3233    0.4799   22.1471 H   0  0  0  0  0  0  0  0  0  0  0  0
   10.6143   -2.0253   21.2266 H   0  0  0  0  0  0  0  0  0  0  0  0
    4.9142    1.7509   16.7472 H   0  0  0  0  0  0  0  0  0  0  0  0
    7.6458   -0.9763   18.1041 H   0  0  0  0  0  0  0  0  0  0  0  0
    7.5128   -2.5277   23.3386 H   0  0  0  0  0  0  0  0  0  0  0  0
    8.7593   -2.9102   22.1430 H   0  0  0  0  0  0  0  0  0  0  0  0
    7.0602   -2.7255   20.5716 H   0  0  0  0  0  0  0  0  0  0  0  0
    5.9526   -1.9964   21.7706 H   0  0  0  0  0  0  0  0  0  0  0  0
    6.9217    0.3182   23.5732 H   0  0  0  0  0  0  0  0  0  0  0  0
    7.6678   -0.8543   24.6617 H   0  0  0  0  0  0  0  0  0  0  0  0
    5.5409    3.9020   27.7387 H   0  0  0  0  0  0  0  0  0  0  0  0
    6.5506    2.6385   28.5201 H   0  0  0  0  0  0  0  0  0  0  0  0
    7.0898    4.3520   28.5293 H   0  0  0  0  0  0  0  0  0  0  0  0
    7.4419    2.5111   23.9339 H   0  0  0  0  0  0  0  0  0  0  0  0
    8.8897    2.9659   24.8736 H   0  0  0  0  0  0  0  0  0  0  0  0
    7.7718    4.1449   26.2876 H   0  0  0  0  0  0  0  0  0  0  0  0
  1  3  2  0  0  0  0
  1  9  1  0  0  0  0
  2  4  2  0  0  0  0
  2 11  1  0  0  0  0
  3 14  1  0  0  0  0
  4 15  1  0  0  0  0
  5 10  1  0  0  0  0
  5 14  2  0  0  0  0
  6 12  1  0  0  0  0
  6 15  2  0  0  0  0
  7  9  2  0  0  0  0
  7 25  1  0  0  0  0
  8 13  1  0  0  0  0
  8 25  2  0  0  0  0
  9 10  1  0  0  0  0
 10 13  2  0  0  0  0
 11 12  2  0  0  0  0
 11 16  1  0  0  0  0
 12 22  1  1  0  0  0
 13 26  1  0  0  0  0
 14 32  1  0  0  0  0
 15 33  1  0  0  0  0
 16 27  1  0  0  0  0
 16 29  2  0  0  0  0
 17 22  1  1  0  0  0
 17 26  1  0  0  0  0
 17 30  2  0  0  0  0
 18 24  1  0  0  0  0
 18 28  1  0  0  0  0
 18 31  2  0  0  0  0
 19 20  1  0  0  0  0
 19 22  1  6  0  0  0
 20 26  1  0  0  0  0
 21 22  1  6  0  0  0
 21 27  1  0  0  0  0
 23 28  1  0  0  0  0
 24 27  1  0  0  0  0
  1 34  1  0  0  0  0
  2 35  1  0  0  0  0
  3 36  1  0  0  0  0
  4 37  1  0  0  0  0
  5 38  1  0  0  0  0
  6 39  1  0  0  0  0
  7 40  1  0  0  0  0
  8 41  1  0  0  0  0
 19 42  1  0  0  0  0
 19 43  1  0  0  0  0
 20 44  1  0  0  0  0
 20 45  1  0  0  0  0
 21 46  1  0  0  0  0
 21 47  1  0  0  0  0
 23 48  1  0  0  0  0
 23 49  1  0  0  0  0
 23 50  1  0  0  0  0
 24 51  1  0  0  0  0
 24 52  1  0  0  0  0
 28 53  1  0  0  0  0
M  END
> <scaffold>
tetrahydroisoquinoline-5spiro-isoquinoline

> <compound>
LUO-POS-8c3e556a-1

> <compound_smiles>
CNC(=O)CN1C[C@]2(CCN(C2=O)c3cncc4c3cc(cc4)Cl)c5cc(ccc5C1=O)Cl

> <enantiomer_smiles>
CNC(=O)CN1C[C@]2(CCN(C2=O)c3cncc4c3cc(cc4)Cl)c5cc(ccc5C1=O)Cl

> <clash_score>
0

> <docking_score>
3.4028234663852886e+38

> <overlap_score>
1.0

> <MMFF_internal_energy>
153.14857383374658

> <docked_smiles>
CNC(=O)CN1C[C@]2(CCN(C2=O)c3cncc4c3cc(cc4)Cl)c5cc(ccc5C1=O)Cl

$$$$
ALP-POS-ecbed2ba-7_1
  -OEChem-01042202313D

 59 64  0     1  0  0  0  0  0999 V2000
    3.3444    2.6278   20.4409 C   0  0  0  0  0  0  0  0  0  0  0  0
    3.8974    1.9290   21.5048 C   0  0  0  0  0  0  0  0  0  0  0  0
    3.7877    2.4205   19.1658 C   0  0  0  0  0  0  0  0  0  0  0  0
    4.8986    1.0232   21.2985 C   0  0  0  0  0  0  0  0  0  0  0  0
   12.0781    0.0316   24.1532 C   0  0  0  0  0  0  0  0  0  0  0  0
   12.9147   -0.6032   23.2559 C   0  0  0  0  0  0  0  0  0  0  0  0
   11.0005   -1.4332   22.0435 C   0  0  0  0  0  0  0  0  0  0  0  0
    5.3288    1.2339   17.6062 C   0  0  0  0  0  0  0  0  0  0  0  0
    6.8449   -0.2893   18.3747 C   0  0  0  0  0  0  0  0  0  0  0  0
    4.8238    1.4906   18.9051 C   0  0  0  0  0  0  0  0  0  0  0  0
    5.3995    0.7732   19.9944 C   0  0  0  0  0  0  0  0  0  0  0  0
   10.7056   -0.0626   23.9890 C   0  0  0  0  0  0  0  0  0  0  0  0
   10.1421   -0.7766   22.9242 C   0  0  0  0  0  0  0  0  0  0  0  0
    6.4452   -0.1472   19.6975 C   0  0  0  0  0  0  0  0  0  0  0  0
   12.3697   -1.3298   22.2224 C   0  0  0  0  0  0  0  0  0  0  0  0
    8.2504    0.0168   21.4265 C   0  0  0  0  0  0  0  0  0  0  0  0
    7.5684    0.8371   26.7440 C   0  0  0  0  0  0  0  0  0  0  0  0
    9.9496    0.5589   24.9527 C   0  0  0  0  0  0  0  0  0  0  0  0
    8.1363    3.1614   25.7997 C   0  0  0  0  0  0  0  0  0  0  0  0
    6.8520    2.7270   25.1528 C   0  0  0  0  0  0  0  0  0  0  0  0
    8.0155   -2.1541   22.4325 C   0  0  0  0  0  0  0  0  0  0  0  0
    6.9880   -1.9367   21.3575 C   0  0  0  0  0  0  0  0  0  0  0  0
    7.8737   -0.1194   23.8825 C   0  0  0  0  0  0  0  0  0  0  0  0
    8.6253   -0.7606   22.6923 C   0  0  3  0  0  0  0  0  0  0  0  0
    7.8584    1.6978   25.5902 C   0  0  0  0  0  0  0  0  0  0  0  0
    5.8424   -0.6591   27.7263 C   0  0  0  0  0  0  0  0  0  0  0  0
    6.3072    0.3768   17.3417 N   0  0  0  0  0  0  0  0  0  0  0  0
    7.2305   -0.6898   20.7785 N   0  0  0  0  0  0  0  0  0  0  0  0
    6.3284    0.2292   26.6950 N   0  0  0  0  0  0  0  0  0  0  0  0
    8.6625    1.0133   24.4989 N   0  3  3  0  0  0  0  0  0  0  0  0
    8.8313    1.0392   21.0788 O   0  0  0  0  0  0  0  0  0  0  0  0
    8.4033    0.7167   27.6330 O   0  0  0  0  0  0  0  0  0  0  0  0
   13.4288   -2.1418   21.1083 Cl  0  0  0  0  0  0  0  0  0  0  0  0
    2.5443    3.3508   20.6368 H   0  0  0  0  0  0  0  0  0  0  0  0
    3.5189    2.1137   22.5166 H   0  0  0  0  0  0  0  0  0  0  0  0
    3.3421    2.9744   18.3363 H   0  0  0  0  0  0  0  0  0  0  0  0
    5.3131    0.4893   22.1569 H   0  0  0  0  0  0  0  0  0  0  0  0
   12.5039    0.5973   24.9740 H   0  0  0  0  0  0  0  0  0  0  0  0
   13.9926   -0.5185   23.3788 H   0  0  0  0  0  0  0  0  0  0  0  0
   10.6054   -2.0165   21.2238 H   0  0  0  0  0  0  0  0  0  0  0  0
    4.9151    1.7511   16.7471 H   0  0  0  0  0  0  0  0  0  0  0  0
    7.6455   -0.9765   18.1038 H   0  0  0  0  0  0  0  0  0  0  0  0
    9.7629   -0.1218   25.8243 H   0  0  0  0  0  0  0  0  0  0  0  0
   10.4577    1.4665   25.3707 H   0  0  0  0  0  0  0  0  0  0  0  0
    8.8759    3.6461   25.1734 H   0  0  0  0  0  0  0  0  0  0  0  0
    8.0809    3.5606   26.8056 H   0  0  0  0  0  0  0  0  0  0  0  0
    5.9393    2.8362   25.7269 H   0  0  0  0  0  0  0  0  0  0  0  0
    6.7317    2.9204   24.0934 H   0  0  0  0  0  0  0  0  0  0  0  0
    7.5154   -2.5475   23.3317 H   0  0  0  0  0  0  0  0  0  0  0  0
    8.7614   -2.9066   22.1413 H   0  0  0  0  0  0  0  0  0  0  0  0
    7.0601   -2.7248   20.5713 H   0  0  0  0  0  0  0  0  0  0  0  0
    5.9529   -1.9960   21.7705 H   0  0  0  0  0  0  0  0  0  0  0  0
    6.8962    0.2935   23.5770 H   0  0  0  0  0  0  0  0  0  0  0  0
    7.6789   -0.8490   24.6903 H   0  0  0  0  0  0  0  0  0  0  0  0
    6.1347   -1.6925   27.4885 H   0  0  0  0  0  0  0  0  0  0  0  0
    6.2766   -0.3690   28.6945 H   0  0  0  0  0  0  0  0  0  0  0  0
    4.7458   -0.5917   27.7813 H   0  0  0  0  0  0  0  0  0  0  0  0
    5.7299    0.4156   25.8960 H   0  0  0  0  0  0  0  0  0  0  0  0
    8.7831    1.7380   23.7672 H   0  0  0  0  0  0  0  0  0  0  0  0
  1  2  2  0  0  0  0
  1  3  1  0  0  0  0
  2  4  1  0  0  0  0
  3 10  2  0  0  0  0
  4 11  2  0  0  0  0
  5  6  2  0  0  0  0
  5 12  1  0  0  0  0
  6 15  1  0  0  0  0
  7 13  1  0  0  0  0
  7 15  2  0  0  0  0
  8 10  1  0  0  0  0
  8 27  2  0  0  0  0
  9 14  2  0  0  0  0
  9 27  1  0  0  0  0
 10 11  1  0  0  0  0
 11 14  1  0  0  0  0
 12 13  2  0  0  0  0
 12 18  1  0  0  0  0
 13 24  1  0  0  0  0
 14 28  1  0  0  0  0
 15 33  1  0  0  0  0
 16 24  1  0  0  0  0
 16 28  1  0  0  0  0
 16 31  2  0  0  0  0
 17 25  1  0  0  0  0
 17 29  1  0  0  0  0
 17 32  2  0  0  0  0
 18 30  1  0  0  0  0
 19 20  1  0  0  0  0
 19 25  1  0  0  0  0
 20 25  1  0  0  0  0
 21 22  1  0  0  0  0
 21 24  1  0  0  0  0
 22 28  1  0  0  0  0
 23 24  1  0  0  0  0
 23 30  1  0  0  0  0
 25 30  1  0  0  0  0
 26 29  1  0  0  0  0
  1 34  1  0  0  0  0
  2 35  1  0  0  0  0
  3 36  1  0  0  0  0
  4 37  1  0  0  0  0
  5 38  1  0  0  0  0
  6 39  1  0  0  0  0
  7 40  1  0  0  0  0
  8 41  1  0  0  0  0
  9 42  1  0  0  0  0
 18 43  1  0  0  0  0
 18 44  1  0  0  0  0
 19 45  1  0  0  0  0
 19 46  1  0  0  0  0
 20 47  1  0  0  0  0
 20 48  1  0  0  0  0
 21 49  1  0  0  0  0
 21 50  1  0  0  0  0
 22 51  1  0  0  0  0
 22 52  1  0  0  0  0
 23 53  1  0  0  0  0
 23 54  1  0  0  0  0
 26 55  1  0  0  0  0
 26 56  1  0  0  0  0
 26 57  1  0  0  0  0
 29 58  1  0  0  0  0
 30 59  1  0  0  0  0
M  CHG  1  30   1
M  END
> <scaffold>
tetrahydroisoquinoline-5spiro-isoquinoline

> <compound>
ALP-POS-ecbed2ba-7

> <compound_smiles>
CNC(=O)C1(CC1)N2Cc3ccc(cc3C4(C2)CCN(C4=O)c5cncc6c5cccc6)Cl

> <enantiomer_smiles>
CNC(=O)C1(CC1)[N@]2Cc3ccc(cc3[C@@]4(C2)CCN(C4=O)c5cncc6c5cccc6)Cl

> <clash_score>
0

> <docking_score>
3.4028234663852886e+38

> <overlap_score>
0.9761333465576172

> <MMFF_internal_energy>
154.43039542160346

> <docked_smiles>
CNC(=O)C1(CC1)[N@H+]2Cc3ccc(cc3[C@@]4(C2)CCN(C4=O)c5cncc6c5cccc6)Cl

$$$$
PET-UNK-77d5678a-6_1
  -OEChem-01042202313D

 51 55  0     1  0  0  0  0  0999 V2000
    3.3444    2.6278   20.4409 C   0  0  0  0  0  0  0  0  0  0  0  0
    3.8974    1.9290   21.5048 C   0  0  0  0  0  0  0  0  0  0  0  0
    3.7877    2.4205   19.1658 C   0  0  0  0  0  0  0  0  0  0  0  0
    4.8986    1.0232   21.2985 C   0  0  0  0  0  0  0  0  0  0  0  0
   12.0781    0.0316   24.1532 C   0  0  0  0  0  0  0  0  0  0  0  0
   12.9147   -0.6032   23.2559 C   0  0  0  0  0  0  0  0  0  0  0  0
   11.0005   -1.4332   22.0435 C   0  0  0  0  0  0  0  0  0  0  0  0
    5.3288    1.2339   17.6062 C   0  0  0  0  0  0  0  0  0  0  0  0
    6.8449   -0.2893   18.3747 C   0  0  0  0  0  0  0  0  0  0  0  0
    4.8238    1.4906   18.9051 C   0  0  0  0  0  0  0  0  0  0  0  0
    5.3995    0.7732   19.9944 C   0  0  0  0  0  0  0  0  0  0  0  0
   10.7056   -0.0626   23.9890 C   0  0  0  0  0  0  0  0  0  0  0  0
   10.1421   -0.7766   22.9242 C   0  0  0  0  0  0  0  0  0  0  0  0
    6.4452   -0.1472   19.6975 C   0  0  0  0  0  0  0  0  0  0  0  0
   12.3697   -1.3298   22.2224 C   0  0  0  0  0  0  0  0  0  0  0  0
    9.9496    0.5589   24.9527 C   0  0  0  0  0  0  0  0  0  0  0  0
    6.9880   -1.9367   21.3575 C   0  0  0  0  0  0  0  0  0  0  0  0
    8.2504    0.0168   21.4265 C   0  0  0  0  0  0  0  0  0  0  0  0
    7.2223    2.1936   26.0311 C   0  0  0  0  0  0  0  0  0  0  0  0
    8.0155   -2.1541   22.4325 C   0  0  0  0  0  0  0  0  0  0  0  0
    7.8737   -0.1194   23.8825 C   0  0  0  0  0  0  0  0  0  0  0  0
    8.6253   -0.7606   22.6923 C   0  0  3  0  0  0  0  0  0  0  0  0
    6.3902    0.8654   27.8029 C   0  0  0  0  0  0  0  0  0  0  0  0
    8.0823    2.2144   24.7894 C   0  0  0  0  0  0  0  0  0  0  0  0
    6.3072    0.3768   17.3417 N   0  0  0  0  0  0  0  0  0  0  0  0
    7.2305   -0.6898   20.7785 N   0  0  0  0  0  0  0  0  0  0  0  0
    8.6625    1.0133   24.4989 N   0  0  0  0  0  0  0  0  0  0  0  0
   10.3273    0.7360   26.1061 O   0  0  0  0  0  0  0  0  0  0  0  0
    6.1283   -2.7644   21.0979 O   0  0  0  0  0  0  0  0  0  0  0  0
    8.7920    1.0603   21.1002 O   0  0  0  0  0  0  0  0  0  0  0  0
    6.6372    3.1925   26.4369 O   0  0  0  0  0  0  0  0  0  0  0  0
    7.1859    0.9653   26.6171 O   0  0  0  0  0  0  0  0  0  0  0  0
   13.4283   -2.1312   21.1004 Cl  0  0  0  0  0  0  0  0  0  0  0  0
    2.5443    3.3508   20.6368 H   0  0  0  0  0  0  0  0  0  0  0  0
    3.5189    2.1137   22.5166 H   0  0  0  0  0  0  0  0  0  0  0  0
    3.3421    2.9744   18.3363 H   0  0  0  0  0  0  0  0  0  0  0  0
    5.3131    0.4893   22.1569 H   0  0  0  0  0  0  0  0  0  0  0  0
   12.5198    0.5961   24.9699 H   0  0  0  0  0  0  0  0  0  0  0  0
   13.9920   -0.5097   23.3723 H   0  0  0  0  0  0  0  0  0  0  0  0
   10.6069   -2.0138   21.2208 H   0  0  0  0  0  0  0  0  0  0  0  0
    4.9151    1.7511   16.7471 H   0  0  0  0  0  0  0  0  0  0  0  0
    7.6455   -0.9765   18.1038 H   0  0  0  0  0  0  0  0  0  0  0  0
    7.4972   -2.5593   23.3105 H   0  0  0  0  0  0  0  0  0  0  0  0
    8.7600   -2.8848   22.0982 H   0  0  0  0  0  0  0  0  0  0  0  0
    6.9062    0.2736   23.5772 H   0  0  0  0  0  0  0  0  0  0  0  0
    7.7145   -0.8339   24.6899 H   0  0  0  0  0  0  0  0  0  0  0  0
    6.4328   -0.1571   28.1862 H   0  0  0  0  0  0  0  0  0  0  0  0
    5.3568    1.1370   27.5733 H   0  0  0  0  0  0  0  0  0  0  0  0
    6.7864    1.5510   28.5557 H   0  0  0  0  0  0  0  0  0  0  0  0
    8.8908    2.9365   24.9298 H   0  0  0  0  0  0  0  0  0  0  0  0
    7.4651    2.4914   23.9309 H   0  0  0  0  0  0  0  0  0  0  0  0
  1  2  2  0  0  0  0
  1  3  1  0  0  0  0
  2  4  1  0  0  0  0
  3 10  2  0  0  0  0
  4 11  2  0  0  0  0
  5  6  2  0  0  0  0
  5 12  1  0  0  0  0
  6 15  1  0  0  0  0
  7 13  1  0  0  0  0
  7 15  2  0  0  0  0
  8 10  1  0  0  0  0
  8 25  2  0  0  0  0
  9 14  2  0  0  0  0
  9 25  1  0  0  0  0
 10 11  1  0  0  0  0
 11 14  1  0  0  0  0
 12 13  2  0  0  0  0
 12 16  1  0  0  0  0
 13 22  1  0  0  0  0
 14 26  1  0  0  0  0
 15 33  1  0  0  0  0
 16 27  1  0  0  0  0
 16 28  2  0  0  0  0
 17 20  1  0  0  0  0
 17 26  1  0  0  0  0
 17 29  2  0  0  0  0
 18 22  1  0  0  0  0
 18 26  1  0  0  0  0
 18 30  2  0  0  0  0
 19 24  1  0  0  0  0
 19 31  2  0  0  0  0
 19 32  1  0  0  0  0
 20 22  1  0  0  0  0
 21 22  1  0  0  0  0
 21 27  1  0  0  0  0
 23 32  1  0  0  0  0
 24 27  1  0  0  0  0
  1 34  1  0  0  0  0
  2 35  1  0  0  0  0
  3 36  1  0  0  0  0
  4 37  1  0  0  0  0
  5 38  1  0  0  0  0
  6 39  1  0  0  0  0
  7 40  1  0  0  0  0
  8 41  1  0  0  0  0
  9 42  1  0  0  0  0
 20 43  1  0  0  0  0
 20 44  1  0  0  0  0
 21 45  1  0  0  0  0
 21 46  1  0  0  0  0
 23 47  1  0  0  0  0
 23 48  1  0  0  0  0
 23 49  1  0  0  0  0
 24 50  1  0  0  0  0
 24 51  1  0  0  0  0
M  END
> <scaffold>
tetrahydroisoquinoline-5spiro-isoquinoline

> <compound>
PET-UNK-77d5678a-6

> <compound_smiles>
COC(=O)CN1CC2(CC(=O)N(C2=O)c3cncc4c3cccc4)c5cc(ccc5C1=O)Cl

> <enantiomer_smiles>
COC(=O)CN1C[C@@]2(CC(=O)N(C2=O)c3cncc4c3cccc4)c5cc(ccc5C1=O)Cl

> <clash_score>
0

> <docking_score>
3.4028234663852886e+38

> <overlap_score>
1.015130639076233

> <MMFF_internal_energy>
136.9142537861301

> <docked_smiles>
COC(=O)CN1C[C@@]2(CC(=O)N(C2=O)c3cncc4c3cccc4)c5cc(ccc5C1=O)Cl

$$$$
ALP-POS-afe0272e-2_1
  -OEChem-01042202313D

 53 57  0     1  0  0  0  0  0999 V2000
    3.3444    2.6278   20.4409 C   0  0  0  0  0  0  0  0  0  0  0  0
    3.8974    1.9290   21.5048 C   0  0  0  0  0  0  0  0  0  0  0  0
    3.7877    2.4205   19.1658 C   0  0  0  0  0  0  0  0  0  0  0  0
    4.8986    1.0232   21.2985 C   0  0  0  0  0  0  0  0  0  0  0  0
   12.0781    0.0316   24.1532 C   0  0  0  0  0  0  0  0  0  0  0  0
   11.0005   -1.4332   22.0435 C   0  0  0  0  0  0  0  0  0  0  0  0
    5.3288    1.2339   17.6062 C   0  0  0  0  0  0  0  0  0  0  0  0
    6.8449   -0.2893   18.3747 C   0  0  0  0  0  0  0  0  0  0  0  0
    4.8238    1.4906   18.9051 C   0  0  0  0  0  0  0  0  0  0  0  0
    5.3995    0.7732   19.9944 C   0  0  0  0  0  0  0  0  0  0  0  0
   10.7056   -0.0626   23.9890 C   0  0  0  0  0  0  0  0  0  0  0  0
   10.1421   -0.7766   22.9242 C   0  0  0  0  0  0  0  0  0  0  0  0
    6.4452   -0.1472   19.6975 C   0  0  0  0  0  0  0  0  0  0  0  0
   12.9147   -0.6032   23.2559 C   0  0  0  0  0  0  0  0  0  0  0  0
   12.3697   -1.3298   22.2224 C   0  0  0  0  0  0  0  0  0  0  0  0
    9.9496    0.5589   24.9527 C   0  0  0  0  0  0  0  0  0  0  0  0
    8.2504    0.0168   21.4265 C   0  0  0  0  0  0  0  0  0  0  0  0
    7.2900    2.1445   26.0369 C   0  0  0  0  0  0  0  0  0  0  0  0
    8.0155   -2.1541   22.4325 C   0  0  0  0  0  0  0  0  0  0  0  0
    6.9880   -1.9367   21.3575 C   0  0  0  0  0  0  0  0  0  0  0  0
    7.8737   -0.1194   23.8825 C   0  0  0  0  0  0  0  0  0  0  0  0
    8.6253   -0.7606   22.6923 C   0  0  3  0  0  0  0  0  0  0  0  0
    6.5710    3.5768   27.9462 C   0  0  0  0  0  0  0  0  0  0  0  0
    8.0937    2.2235   24.7641 C   0  0  0  0  0  0  0  0  0  0  0  0
    6.3072    0.3768   17.3417 N   0  0  0  0  0  0  0  0  0  0  0  0
    7.2305   -0.6898   20.7785 N   0  0  0  0  0  0  0  0  0  0  0  0
    8.6625    1.0133   24.4989 N   0  0  0  0  0  0  0  0  0  0  0  0
    7.2701    3.3635   26.6994 N   0  0  0  0  0  0  0  0  0  0  0  0
   10.3233    0.7301   26.1084 O   0  0  0  0  0  0  0  0  0  0  0  0
    8.8205    1.0412   21.0776 O   0  0  0  0  0  0  0  0  0  0  0  0
    6.7292    1.1211   26.4196 O   0  0  0  0  0  0  0  0  0  0  0  0
   14.6220   -0.4518   23.4877 Cl  0  0  0  0  0  0  0  0  0  0  0  0
   13.3804   -2.1714   21.0740 Cl  0  0  0  0  0  0  0  0  0  0  0  0
    2.5443    3.3508   20.6368 H   0  0  0  0  0  0  0  0  0  0  0  0
    3.5189    2.1137   22.5166 H   0  0  0  0  0  0  0  0  0  0  0  0
    3.3421    2.9744   18.3363 H   0  0  0  0  0  0  0  0  0  0  0  0
    5.3131    0.4893   22.1569 H   0  0  0  0  0  0  0  0  0  0  0  0
   12.5022    0.6023   24.9768 H   0  0  0  0  0  0  0  0  0  0  0  0
   10.6110   -2.0263   21.2287 H   0  0  0  0  0  0  0  0  0  0  0  0
    4.9151    1.7511   16.7471 H   0  0  0  0  0  0  0  0  0  0  0  0
    7.6455   -0.9765   18.1038 H   0  0  0  0  0  0  0  0  0  0  0  0
    7.5126   -2.5274   23.3386 H   0  0  0  0  0  0  0  0  0  0  0  0
    8.7591   -2.9104   22.1427 H   0  0  0  0  0  0  0  0  0  0  0  0
    7.0603   -2.7260   20.5721 H   0  0  0  0  0  0  0  0  0  0  0  0
    5.9527   -1.9964   21.7707 H   0  0  0  0  0  0  0  0  0  0  0  0
    6.9225    0.3191   23.5720 H   0  0  0  0  0  0  0  0  0  0  0  0
    7.6662   -0.8542   24.6612 H   0  0  0  0  0  0  0  0  0  0  0  0
    5.5409    3.9021   27.7387 H   0  0  0  0  0  0  0  0  0  0  0  0
    6.5506    2.6386   28.5201 H   0  0  0  0  0  0  0  0  0  0  0  0
    7.0898    4.3520   28.5293 H   0  0  0  0  0  0  0  0  0  0  0  0
    7.4419    2.5111   23.9339 H   0  0  0  0  0  0  0  0  0  0  0  0
    8.8897    2.9659   24.8736 H   0  0  0  0  0  0  0  0  0  0  0  0
    7.7718    4.1449   26.2876 H   0  0  0  0  0  0  0  0  0  0  0  0
  1  2  2  0  0  0  0
  1  3  1  0  0  0  0
  2  4  1  0  0  0  0
  3  9  2  0  0  0  0
  4 10  2  0  0  0  0
  5 11  2  0  0  0  0
  5 14  1  0  0  0  0
  6 12  2  0  0  0  0
  6 15  1  0  0  0  0
  7  9  1  0  0  0  0
  7 25  2  0  0  0  0
  8 13  2  0  0  0  0
  8 25  1  0  0  0  0
  9 10  1  0  0  0  0
 10 13  1  0  0  0  0
 11 12  1  0  0  0  0
 11 16  1  0  0  0  0
 12 22  1  0  0  0  0
 13 26  1  0  0  0  0
 14 15  2  0  0  0  0
 14 32  1  0  0  0  0
 15 33  1  0  0  0  0
 16 27  1  0  0  0  0
 16 29  2  0  0  0  0
 17 22  1  0  0  0  0
 17 26  1  0  0  0  0
 17 30  2  0  0  0  0
 18 24  1  0  0  0  0
 18 28  1  0  0  0  0
 18 31  2  0  0  0  0
 19 20  1  0  0  0  0
 19 22  1  0  0  0  0
 20 26  1  0  0  0  0
 21 22  1  0  0  0  0
 21 27  1  0  0  0  0
 23 28  1  0  0  0  0
 24 27  1  0  0  0  0
  1 34  1  0  0  0  0
  2 35  1  0  0  0  0
  3 36  1  0  0  0  0
  4 37  1  0  0  0  0
  5 38  1  0  0  0  0
  6 39  1  0  0  0  0
  7 40  1  0  0  0  0
  8 41  1  0  0  0  0
 19 42  1  0  0  0  0
 19 43  1  0  0  0  0
 20 44  1  0  0  0  0
 20 45  1  0  0  0  0
 21 46  1  0  0  0  0
 21 47  1  0  0  0  0
 23 48  1  0  0  0  0
 23 49  1  0  0  0  0
 23 50  1  0  0  0  0
 24 51  1  0  0  0  0
 24 52  1  0  0  0  0
 28 53  1  0  0  0  0
M  END
> <scaffold>
tetrahydroisoquinoline-5spiro-isoquinoline

> <compound>
ALP-POS-afe0272e-2

> <compound_smiles>
CNC(=O)CN1CC2(CCN(C2=O)c3cncc4c3cccc4)c5cc(c(cc5C1=O)Cl)Cl

> <enantiomer_smiles>
CNC(=O)CN1C[C@]2(CCN(C2=O)c3cncc4c3cccc4)c5cc(c(cc5C1=O)Cl)Cl

> <clash_score>
0

> <docking_score>
3.4028234663852886e+38

> <overlap_score>
1.0

> <MMFF_internal_energy>
159.77125888391248

> <docked_smiles>
CNC(=O)CN1C[C@]2(CCN(C2=O)c3cncc4c3cccc4)c5cc(c(cc5C1=O)Cl)Cl

$$$$
MAT-POS-1d5ab790-3_1
  -OEChem-01042202313D

 53 57  0     1  0  0  0  0  0999 V2000
    3.3444    2.6278   20.4409 C   0  0  0  0  0  0  0  0  0  0  0  0
    3.7877    2.4205   19.1658 C   0  0  0  0  0  0  0  0  0  0  0  0
   12.0781    0.0316   24.1532 C   0  0  0  0  0  0  0  0  0  0  0  0
    3.8974    1.9290   21.5048 C   0  0  0  0  0  0  0  0  0  0  0  0
   12.9147   -0.6032   23.2559 C   0  0  0  0  0  0  0  0  0  0  0  0
   11.0005   -1.4332   22.0435 C   0  0  0  0  0  0  0  0  0  0  0  0
    5.3288    1.2339   17.6062 C   0  0  0  0  0  0  0  0  0  0  0  0
    6.8449   -0.2893   18.3747 C   0  0  0  0  0  0  0  0  0  0  0  0
    4.8238    1.4906   18.9051 C   0  0  0  0  0  0  0  0  0  0  0  0
    5.3995    0.7732   19.9944 C   0  0  0  0  0  0  0  0  0  0  0  0
   10.7056   -0.0626   23.9890 C   0  0  0  0  0  0  0  0  0  0  0  0
   10.1421   -0.7766   22.9242 C   0  0  0  0  0  0  0  0  0  0  0  0
    6.4452   -0.1472   19.6975 C   0  0  0  0  0  0  0  0  0  0  0  0
   12.3697   -1.3298   22.2224 C   0  0  0  0  0  0  0  0  0  0  0  0
    4.8986    1.0232   21.2985 C   0  0  0  0  0  0  0  0  0  0  0  0
    9.9496    0.5589   24.9527 C   0  0  0  0  0  0  0  0  0  0  0  0
    8.2504    0.0168   21.4265 C   0  0  0  0  0  0  0  0  0  0  0  0
    7.2900    2.1445   26.0369 C   0  0  0  0  0  0  0  0  0  0  0  0
    8.0155   -2.1541   22.4325 C   0  0  0  0  0  0  0  0  0  0  0  0
    6.9880   -1.9367   21.3575 C   0  0  0  0  0  0  0  0  0  0  0  0
    7.8737   -0.1194   23.8825 C   0  0  0  0  0  0  0  0  0  0  0  0
    8.6253   -0.7606   22.6923 C   0  0  3  0  0  0  0  0  0  0  0  0
    6.5711    3.5767   27.9463 C   0  0  0  0  0  0  0  0  0  0  0  0
    8.0937    2.2235   24.7641 C   0  0  0  0  0  0  0  0  0  0  0  0
    6.3072    0.3768   17.3417 N   0  0  0  0  0  0  0  0  0  0  0  0
    7.2305   -0.6898   20.7785 N   0  0  0  0  0  0  0  0  0  0  0  0
    8.6625    1.0133   24.4989 N   0  0  0  0  0  0  0  0  0  0  0  0
    7.2701    3.3635   26.6994 N   0  0  0  0  0  0  0  0  0  0  0  0
   10.3233    0.7301   26.1084 O   0  0  0  0  0  0  0  0  0  0  0  0
    8.8205    1.0412   21.0776 O   0  0  0  0  0  0  0  0  0  0  0  0
    6.7292    1.1210   26.4195 O   0  0  0  0  0  0  0  0  0  0  0  0
   13.4288   -2.1465   21.1124 Cl  0  0  0  0  0  0  0  0  0  0  0  0
    5.4637    0.2451   22.7511 Cl  0  0  0  0  0  0  0  0  0  0  0  0
    2.5436    3.3504   20.6371 H   0  0  0  0  0  0  0  0  0  0  0  0
    3.3414    2.9737   18.3360 H   0  0  0  0  0  0  0  0  0  0  0  0
   12.5188    0.5961   24.9710 H   0  0  0  0  0  0  0  0  0  0  0  0
    3.5007    2.1328   22.5078 H   0  0  0  0  0  0  0  0  0  0  0  0
   13.9920   -0.5226   23.3817 H   0  0  0  0  0  0  0  0  0  0  0  0
   10.6143   -2.0253   21.2266 H   0  0  0  0  0  0  0  0  0  0  0  0
    4.9145    1.7510   16.7474 H   0  0  0  0  0  0  0  0  0  0  0  0
    7.6459   -0.9748   18.1001 H   0  0  0  0  0  0  0  0  0  0  0  0
    7.5128   -2.5277   23.3386 H   0  0  0  0  0  0  0  0  0  0  0  0
    8.7593   -2.9102   22.1430 H   0  0  0  0  0  0  0  0  0  0  0  0
    7.0602   -2.7255   20.5716 H   0  0  0  0  0  0  0  0  0  0  0  0
    5.9526   -1.9964   21.7706 H   0  0  0  0  0  0  0  0  0  0  0  0
    6.9217    0.3182   23.5732 H   0  0  0  0  0  0  0  0  0  0  0  0
    7.6678   -0.8543   24.6617 H   0  0  0  0  0  0  0  0  0  0  0  0
    5.5409    3.9020   27.7387 H   0  0  0  0  0  0  0  0  0  0  0  0
    6.5506    2.6385   28.5201 H   0  0  0  0  0  0  0  0  0  0  0  0
    7.0898    4.3520   28.5293 H   0  0  0  0  0  0  0  0  0  0  0  0
    7.4419    2.5111   23.9339 H   0  0  0  0  0  0  0  0  0  0  0  0
    8.8897    2.9659   24.8736 H   0  0  0  0  0  0  0  0  0  0  0  0
    7.7718    4.1449   26.2876 H   0  0  0  0  0  0  0  0  0  0  0  0
  1  2  2  0  0  0  0
  1  4  1  0  0  0  0
  2  9  1  0  0  0  0
  3  5  2  0  0  0  0
  3 11  1  0  0  0  0
  4 15  2  0  0  0  0
  5 14  1  0  0  0  0
  6 12  1  0  0  0  0
  6 14  2  0  0  0  0
  7  9  2  0  0  0  0
  7 25  1  0  0  0  0
  8 13  1  0  0  0  0
  8 25  2  0  0  0  0
  9 10  1  0  0  0  0
 10 13  2  0  0  0  0
 10 15  1  0  0  0  0
 11 12  2  0  0  0  0
 11 16  1  0  0  0  0
 12 22  1  0  0  0  0
 13 26  1  0  0  0  0
 14 32  1  0  0  0  0
 15 33  1  0  0  0  0
 16 27  1  0  0  0  0
 16 29  2  0  0  0  0
 17 22  1  0  0  0  0
 17 26  1  0  0  0  0
 17 30  2  0  0  0  0
 18 24  1  0  0  0  0
 18 28  1  0  0  0  0
 18 31  2  0  0  0  0
 19 20  1  0  0  0  0
 19 22  1  0  0  0  0
 20 26  1  0  0  0  0
 21 22  1  0  0  0  0
 21 27  1  0  0  0  0
 23 28  1  0  0  0  0
 24 27  1  0  0  0  0
  1 34  1  0  0  0  0
  2 35  1  0  0  0  0
  3 36  1  0  0  0  0
  4 37  1  0  0  0  0
  5 38  1  0  0  0  0
  6 39  1  0  0  0  0
  7 40  1  0  0  0  0
  8 41  1  0  0  0  0
 19 42  1  0  0  0  0
 19 43  1  0  0  0  0
 20 44  1  0  0  0  0
 20 45  1  0  0  0  0
 21 46  1  0  0  0  0
 21 47  1  0  0  0  0
 23 48  1  0  0  0  0
 23 49  1  0  0  0  0
 23 50  1  0  0  0  0
 24 51  1  0  0  0  0
 24 52  1  0  0  0  0
 28 53  1  0  0  0  0
M  END
> <scaffold>
tetrahydroisoquinoline-5spiro-isoquinoline

> <compound>
MAT-POS-1d5ab790-3

> <compound_smiles>
CNC(=O)CN1CC2(CCN(C2=O)c3cncc4c3c(ccc4)Cl)c5cc(ccc5C1=O)Cl

> <enantiomer_smiles>
CNC(=O)CN1C[C@]2(CCN(C2=O)c3cncc4c3c(ccc4)Cl)c5cc(ccc5C1=O)Cl

> <clash_score>
0

> <docking_score>
3.4028234663852886e+38

> <overlap_score>
1.0

> <MMFF_internal_energy>
230.8942417569039

> <docked_smiles>
CNC(=O)CN1C[C@]2(CCN(C2=O)c3cncc4c3c(ccc4)Cl)c5cc(ccc5C1=O)Cl

$$$$
VLA-UCB-34f3ed0c-14_1
  -OEChem-01042202313D

 60 65  0     1  0  0  0  0  0999 V2000
    3.3444    2.6278   20.4409 C   0  0  0  0  0  0  0  0  0  0  0  0
    3.8974    1.9290   21.5048 C   0  0  0  0  0  0  0  0  0  0  0  0
    3.7877    2.4205   19.1658 C   0  0  0  0  0  0  0  0  0  0  0  0
    4.8986    1.0232   21.2985 C   0  0  0  0  0  0  0  0  0  0  0  0
   12.0781    0.0316   24.1532 C   0  0  0  0  0  0  0  0  0  0  0  0
   12.9147   -0.6032   23.2559 C   0  0  0  0  0  0  0  0  0  0  0  0
   11.0005   -1.4332   22.0435 C   0  0  0  0  0  0  0  0  0  0  0  0
    5.3288    1.2339   17.6062 C   0  0  0  0  0  0  0  0  0  0  0  0
    6.8449   -0.2893   18.3747 C   0  0  0  0  0  0  0  0  0  0  0  0
    4.8238    1.4906   18.9051 C   0  0  0  0  0  0  0  0  0  0  0  0
    5.3995    0.7732   19.9944 C   0  0  0  0  0  0  0  0  0  0  0  0
   10.1421   -0.7766   22.9242 C   0  0  0  0  0  0  0  0  0  0  0  0
    6.4452   -0.1472   19.6975 C   0  0  0  0  0  0  0  0  0  0  0  0
   10.7056   -0.0626   23.9890 C   0  0  0  0  0  0  0  0  0  0  0  0
   12.3697   -1.3298   22.2224 C   0  0  0  0  0  0  0  0  0  0  0  0
    8.2504    0.0168   21.4265 C   0  0  0  0  0  0  0  0  0  0  0  0
    6.9880   -1.9367   21.3575 C   0  0  0  0  0  0  0  0  0  0  0  0
   10.1996   -6.6098   21.0170 C   0  0  0  0  0  0  0  0  0  0  0  0
   10.6322   -6.3106   22.4489 C   0  0  0  0  0  0  0  0  0  0  0  0
    9.9104   -5.3298   20.2392 C   0  0  0  0  0  0  0  0  0  0  0  0
    9.6138   -5.4333   23.1734 C   0  0  0  0  0  0  0  0  0  0  0  0
    8.8909   -4.4507   20.9600 C   0  0  0  0  0  0  0  0  0  0  0  0
    7.8737   -0.1194   23.8825 C   0  0  0  0  0  0  0  0  0  0  0  0
    8.6625    1.0133   24.4989 C   0  0  0  0  0  0  0  0  0  0  0  0
    9.3268   -4.1402   22.3982 C   0  0  0  0  0  0  0  0  0  0  0  0
    8.6253   -0.7606   22.6923 C   0  0  2  0  0  0  0  0  0  0  0  0
    8.2670   -3.3056   23.1149 C   0  0  0  0  0  0  0  0  0  0  0  0
    6.3072    0.3768   17.3417 N   0  0  0  0  0  0  0  0  0  0  0  0
    7.2305   -0.6898   20.7785 N   0  0  0  0  0  0  0  0  0  0  0  0
    8.0155   -2.1541   22.4325 N   0  0  0  0  0  0  0  0  0  0  0  0
    8.8030    1.0413   21.0842 O   0  0  0  0  0  0  0  0  0  0  0  0
    6.1158   -2.7517   21.1386 O   0  0  0  0  0  0  0  0  0  0  0  0
    9.9496    0.5589   24.9527 O   0  0  0  0  0  0  0  0  0  0  0  0
   13.4278   -2.1472   21.1115 Cl  0  0  0  0  0  0  0  0  0  0  0  0
    2.5443    3.3508   20.6368 H   0  0  0  0  0  0  0  0  0  0  0  0
    3.5189    2.1137   22.5166 H   0  0  0  0  0  0  0  0  0  0  0  0
    3.3421    2.9744   18.3363 H   0  0  0  0  0  0  0  0  0  0  0  0
    5.3131    0.4893   22.1569 H   0  0  0  0  0  0  0  0  0  0  0  0
   12.5017    0.6065   24.9715 H   0  0  0  0  0  0  0  0  0  0  0  0
   13.9924   -0.5157   23.3773 H   0  0  0  0  0  0  0  0  0  0  0  0
   10.6031   -2.0252   21.2295 H   0  0  0  0  0  0  0  0  0  0  0  0
    4.9151    1.7511   16.7471 H   0  0  0  0  0  0  0  0  0  0  0  0
    7.6455   -0.9765   18.1038 H   0  0  0  0  0  0  0  0  0  0  0  0
   10.9830   -7.1820   20.5072 H   0  0  0  0  0  0  0  0  0  0  0  0
    9.3008   -7.2385   21.0315 H   0  0  0  0  0  0  0  0  0  0  0  0
   10.7656   -7.2503   22.9969 H   0  0  0  0  0  0  0  0  0  0  0  0
   11.6062   -5.8060   22.4386 H   0  0  0  0  0  0  0  0  0  0  0  0
   10.8424   -4.7683   20.1001 H   0  0  0  0  0  0  0  0  0  0  0  0
    9.5383   -5.5827   19.2398 H   0  0  0  0  0  0  0  0  0  0  0  0
    8.6840   -6.0001   23.3114 H   0  0  0  0  0  0  0  0  0  0  0  0
    9.9903   -5.1936   24.1750 H   0  0  0  0  0  0  0  0  0  0  0  0
    8.7574   -3.5176   20.3995 H   0  0  0  0  0  0  0  0  0  0  0  0
    7.9180   -4.9589   20.9661 H   0  0  0  0  0  0  0  0  0  0  0  0
    7.7144   -0.8754   24.6692 H   0  0  0  0  0  0  0  0  0  0  0  0
    6.8760    0.2356   23.5741 H   0  0  0  0  0  0  0  0  0  0  0  0
    8.8025    1.8559   23.8153 H   0  0  0  0  0  0  0  0  0  0  0  0
    8.1356    1.3957   25.3777 H   0  0  0  0  0  0  0  0  0  0  0  0
   10.2426   -3.5399   22.3654 H   0  0  0  0  0  0  0  0  0  0  0  0
    7.3396   -3.8921   23.1917 H   0  0  0  0  0  0  0  0  0  0  0  0
    8.6279   -3.0563   24.1237 H   0  0  0  0  0  0  0  0  0  0  0  0
  1  2  2  0  0  0  0
  1  3  1  0  0  0  0
  2  4  1  0  0  0  0
  3 10  2  0  0  0  0
  4 11  2  0  0  0  0
  5  6  2  0  0  0  0
  5 14  1  0  0  0  0
  6 15  1  0  0  0  0
  7 12  1  0  0  0  0
  7 15  2  0  0  0  0
  8 10  1  0  0  0  0
  8 28  2  0  0  0  0
  9 13  2  0  0  0  0
  9 28  1  0  0  0  0
 10 11  1  0  0  0  0
 11 13  1  0  0  0  0
 12 14  2  0  0  0  0
 12 26  1  6  0  0  0
 13 29  1  0  0  0  0
 14 33  1  0  0  0  0
 15 34  1  0  0  0  0
 16 26  1  1  0  0  0
 16 29  1  0  0  0  0
 16 31  2  0  0  0  0
 17 29  1  0  0  0  0
 17 30  1  0  0  0  0
 17 32  2  0  0  0  0
 18 19  1  0  0  0  0
 18 20  1  0  0  0  0
 19 21  1  0  0  0  0
 20 22  1  0  0  0  0
 21 25  1  0  0  0  0
 22 25  1  0  0  0  0
 23 24  1  0  0  0  0
 23 26  1  1  0  0  0
 24 33  1  0  0  0  0
 25 27  1  0  0  0  0
 26 30  1  6  0  0  0
 27 30  1  0  0  0  0
  1 35  1  0  0  0  0
  2 36  1  0  0  0  0
  3 37  1  0  0  0  0
  4 38  1  0  0  0  0
  5 39  1  0  0  0  0
  6 40  1  0  0  0  0
  7 41  1  0  0  0  0
  8 42  1  0  0  0  0
  9 43  1  0  0  0  0
 18 44  1  0  0  0  0
 18 45  1  0  0  0  0
 19 46  1  0  0  0  0
 19 47  1  0  0  0  0
 20 48  1  0  0  0  0
 20 49  1  0  0  0  0
 21 50  1  0  0  0  0
 21 51  1  0  0  0  0
 22 52  1  0  0  0  0
 22 53  1  0  0  0  0
 23 54  1  0  0  0  0
 23 55  1  0  0  0  0
 24 56  1  0  0  0  0
 24 57  1  0  0  0  0
 25 58  1  0  0  0  0
 27 59  1  0  0  0  0
 27 60  1  0  0  0  0
M  END
> <scaffold>
chromane-5spiro-isoquinoline

> <compound>
VLA-UCB-34f3ed0c-14

> <compound_smiles>
c1ccc2c(c1)cncc2N3C(=O)[C@@]4(CCOc5c4cc(cc5)Cl)N(C3=O)CC6CCCCC6

> <enantiomer_smiles>
c1ccc2c(c1)cncc2N3C(=O)[C@@]4(CCOc5c4cc(cc5)Cl)N(C3=O)CC6CCCCC6

> <clash_score>
8.048972048330628

> <docking_score>
3.4028234663852886e+38

> <overlap_score>
1.0

> <MMFF_internal_energy>
82.17092373310577

> <docked_smiles>
c1ccc2c(c1)cncc2N3C(=O)[C@@]4(CCOc5c4cc(cc5)Cl)N(C3=O)CC6CCCCC6

$$$$
VLA-UNK-61877630-5_1
  -OEChem-01042202313D

 53 57  0     1  0  0  0  0  0999 V2000
    3.3444    2.6278   20.4409 C   0  0  0  0  0  0  0  0  0  0  0  0
    3.8974    1.9290   21.5048 C   0  0  0  0  0  0  0  0  0  0  0  0
    3.7877    2.4205   19.1658 C   0  0  0  0  0  0  0  0  0  0  0  0
    4.8986    1.0232   21.2985 C   0  0  0  0  0  0  0  0  0  0  0  0
   12.0781    0.0316   24.1532 C   0  0  0  0  0  0  0  0  0  0  0  0
   11.0005   -1.4332   22.0435 C   0  0  0  0  0  0  0  0  0  0  0  0
    5.3288    1.2339   17.6062 C   0  0  0  0  0  0  0  0  0  0  0  0
    6.8449   -0.2893   18.3747 C   0  0  0  0  0  0  0  0  0  0  0  0
    4.8238    1.4906   18.9051 C   0  0  0  0  0  0  0  0  0  0  0  0
    5.3995    0.7732   19.9944 C   0  0  0  0  0  0  0  0  0  0  0  0
   10.7056   -0.0626   23.9890 C   0  0  0  0  0  0  0  0  0  0  0  0
   10.1421   -0.7766   22.9242 C   0  0  0  0  0  0  0  0  0  0  0  0
    6.4452   -0.1472   19.6975 C   0  0  0  0  0  0  0  0  0  0  0  0
   12.9147   -0.6032   23.2559 C   0  0  0  0  0  0  0  0  0  0  0  0
   12.3697   -1.3298   22.2224 C   0  0  0  0  0  0  0  0  0  0  0  0
    9.9496    0.5589   24.9527 C   0  0  0  0  0  0  0  0  0  0  0  0
    8.2504    0.0168   21.4265 C   0  0  0  0  0  0  0  0  0  0  0  0
    7.2792    2.1116   26.0358 C   0  0  0  0  0  0  0  0  0  0  0  0
    8.0155   -2.1541   22.4325 C   0  0  0  0  0  0  0  0  0  0  0  0
    6.9880   -1.9367   21.3575 C   0  0  0  0  0  0  0  0  0  0  0  0
    7.8737   -0.1194   23.8825 C   0  0  0  0  0  0  0  0  0  0  0  0
    8.6253   -0.7606   22.6923 C   0  0  2  0  0  0  0  0  0  0  0  0
    6.5261    3.5003   27.9641 C   0  0  0  0  0  0  0  0  0  0  0  0
    8.0895    2.2244   24.7698 C   0  0  0  0  0  0  0  0  0  0  0  0
    6.3072    0.3768   17.3417 N   0  0  0  0  0  0  0  0  0  0  0  0
    7.2305   -0.6898   20.7785 N   0  0  0  0  0  0  0  0  0  0  0  0
    8.6625    1.0133   24.4989 N   0  0  0  0  0  0  0  0  0  0  0  0
    7.2361    3.3189   26.7184 N   0  0  0  0  0  0  0  0  0  0  0  0
   10.3247    0.7292   26.1099 O   0  0  0  0  0  0  0  0  0  0  0  0
    8.7593    1.0936   21.1345 O   0  0  0  0  0  0  0  0  0  0  0  0
    6.7321    1.0733   26.3978 O   0  0  0  0  0  0  0  0  0  0  0  0
   14.2438   -0.4978   23.4030 F   0  0  0  0  0  0  0  0  0  0  0  0
   13.4235   -2.1402   21.1019 Cl  0  0  0  0  0  0  0  0  0  0  0  0
    2.5443    3.3508   20.6368 H   0  0  0  0  0  0  0  0  0  0  0  0
    3.5189    2.1137   22.5166 H   0  0  0  0  0  0  0  0  0  0  0  0
    3.3421    2.9744   18.3363 H   0  0  0  0  0  0  0  0  0  0  0  0
    5.3131    0.4893   22.1569 H   0  0  0  0  0  0  0  0  0  0  0  0
   12.5195    0.5904   24.9742 H   0  0  0  0  0  0  0  0  0  0  0  0
   10.6140   -2.0168   21.2206 H   0  0  0  0  0  0  0  0  0  0  0  0
    4.9151    1.7511   16.7471 H   0  0  0  0  0  0  0  0  0  0  0  0
    7.6455   -0.9765   18.1038 H   0  0  0  0  0  0  0  0  0  0  0  0
    7.5789   -2.6162   23.3297 H   0  0  0  0  0  0  0  0  0  0  0  0
    8.7860   -2.8458   22.0568 H   0  0  0  0  0  0  0  0  0  0  0  0
    7.0221   -2.7511   20.5947 H   0  0  0  0  0  0  0  0  0  0  0  0
    5.9571   -1.9477   21.7844 H   0  0  0  0  0  0  0  0  0  0  0  0
    6.9034    0.2706   23.5724 H   0  0  0  0  0  0  0  0  0  0  0  0
    7.7061   -0.8354   24.6903 H   0  0  0  0  0  0  0  0  0  0  0  0
    5.4924    3.8130   27.7553 H   0  0  0  0  0  0  0  0  0  0  0  0
    6.5168    2.5525   28.5221 H   0  0  0  0  0  0  0  0  0  0  0  0
    7.0290    4.2737   28.5633 H   0  0  0  0  0  0  0  0  0  0  0  0
    7.4384    2.5157   23.9403 H   0  0  0  0  0  0  0  0  0  0  0  0
    8.8731    2.9771   24.8968 H   0  0  0  0  0  0  0  0  0  0  0  0
    7.7281    4.1148   26.3229 H   0  0  0  0  0  0  0  0  0  0  0  0
  1  2  2  0  0  0  0
  1  3  1  0  0  0  0
  2  4  1  0  0  0  0
  3  9  2  0  0  0  0
  4 10  2  0  0  0  0
  5 11  2  0  0  0  0
  5 14  1  0  0  0  0
  6 12  2  0  0  0  0
  6 15  1  0  0  0  0
  7  9  1  0  0  0  0
  7 25  2  0  0  0  0
  8 13  2  0  0  0  0
  8 25  1  0  0  0  0
  9 10  1  0  0  0  0
 10 13  1  0  0  0  0
 11 12  1  0  0  0  0
 11 16  1  0  0  0  0
 12 22  1  6  0  0  0
 13 26  1  0  0  0  0
 14 15  2  0  0  0  0
 14 32  1  0  0  0  0
 15 33  1  0  0  0  0
 16 27  1  0  0  0  0
 16 29  2  0  0  0  0
 17 22  1  6  0  0  0
 17 26  1  0  0  0  0
 17 30  2  0  0  0  0
 18 24  1  0  0  0  0
 18 28  1  0  0  0  0
 18 31  2  0  0  0  0
 19 20  1  0  0  0  0
 19 22  1  1  0  0  0
 20 26  1  0  0  0  0
 21 22  1  1  0  0  0
 21 27  1  0  0  0  0
 23 28  1  0  0  0  0
 24 27  1  0  0  0  0
  1 34  1  0  0  0  0
  2 35  1  0  0  0  0
  3 36  1  0  0  0  0
  4 37  1  0  0  0  0
  5 38  1  0  0  0  0
  6 39  1  0  0  0  0
  7 40  1  0  0  0  0
  8 41  1  0  0  0  0
 19 42  1  0  0  0  0
 19 43  1  0  0  0  0
 20 44  1  0  0  0  0
 20 45  1  0  0  0  0
 21 46  1  0  0  0  0
 21 47  1  0  0  0  0
 23 48  1  0  0  0  0
 23 49  1  0  0  0  0
 23 50  1  0  0  0  0
 24 51  1  0  0  0  0
 24 52  1  0  0  0  0
 28 53  1  0  0  0  0
M  END
> <scaffold>
tetrahydroisoquinoline-5spiro-isoquinoline

> <compound>
VLA-UNK-61877630-5

> <compound_smiles>
CNC(=O)CN1C[C@@]2(CCN(C2=O)c3cncc4c3cccc4)c5cc(c(cc5C1=O)F)Cl

> <enantiomer_smiles>
CNC(=O)CN1C[C@@]2(CCN(C2=O)c3cncc4c3cccc4)c5cc(c(cc5C1=O)F)Cl

> <clash_score>
0

> <docking_score>
3.4028234663852886e+38

> <overlap_score>
1.0

> <MMFF_internal_energy>
155.92205202686154

> <docked_smiles>
CNC(=O)CN1C[C@@]2(CCN(C2=O)c3cncc4c3cccc4)c5cc(c(cc5C1=O)F)Cl

$$$$
EDJ-MED-a12e3a20-2_1
  -OEChem-01042202313D

 52 56  0     1  0  0  0  0  0999 V2000
    3.3444    2.6278   20.4409 C   0  0  0  0  0  0  0  0  0  0  0  0
    3.8974    1.9290   21.5048 C   0  0  0  0  0  0  0  0  0  0  0  0
    3.7877    2.4205   19.1658 C   0  0  0  0  0  0  0  0  0  0  0  0
    4.8986    1.0232   21.2985 C   0  0  0  0  0  0  0  0  0  0  0  0
   12.0781    0.0316   24.1532 C   0  0  0  0  0  0  0  0  0  0  0  0
   12.9147   -0.6032   23.2559 C   0  0  0  0  0  0  0  0  0  0  0  0
   11.0005   -1.4332   22.0435 C   0  0  0  0  0  0  0  0  0  0  0  0
    5.3288    1.2339   17.6062 C   0  0  0  0  0  0  0  0  0  0  0  0
    6.8449   -0.2893   18.3747 C   0  0  0  0  0  0  0  0  0  0  0  0
    4.8238    1.4906   18.9051 C   0  0  0  0  0  0  0  0  0  0  0  0
    5.3995    0.7732   19.9944 C   0  0  0  0  0  0  0  0  0  0  0  0
   10.7056   -0.0626   23.9890 C   0  0  0  0  0  0  0  0  0  0  0  0
   10.1421   -0.7766   22.9242 C   0  0  0  0  0  0  0  0  0  0  0  0
    6.4452   -0.1472   19.6975 C   0  0  0  0  0  0  0  0  0  0  0  0
   12.3697   -1.3298   22.2224 C   0  0  0  0  0  0  0  0  0  0  0  0
    9.9496    0.5589   24.9527 C   0  0  0  0  0  0  0  0  0  0  0  0
    8.0155   -2.1541   22.4325 C   0  0  0  0  0  0  0  0  0  0  0  0
    8.2504    0.0168   21.4265 C   0  0  0  0  0  0  0  0  0  0  0  0
    7.2636    2.0618   26.0505 C   0  0  0  0  0  0  0  0  0  0  0  0
    6.9880   -1.9367   21.3575 C   0  0  0  0  0  0  0  0  0  0  0  0
    7.8737   -0.1194   23.8825 C   0  0  0  0  0  0  0  0  0  0  0  0
    8.6253   -0.7606   22.6923 C   0  0  3  0  0  0  0  0  0  0  0  0
    6.4889    3.3971   28.0078 C   0  0  0  0  0  0  0  0  0  0  0  0
    8.0815    2.2113   24.7932 C   0  0  0  0  0  0  0  0  0  0  0  0
    6.3072    0.3768   17.3417 N   0  0  0  0  0  0  0  0  0  0  0  0
    7.2305   -0.6898   20.7785 N   0  0  0  0  0  0  0  0  0  0  0  0
    8.6625    1.0133   24.4989 N   0  0  0  0  0  0  0  0  0  0  0  0
    7.2083    3.2513   26.7628 N   0  0  0  0  0  0  0  0  0  0  0  0
   10.3286    0.7387   26.1040 O   0  0  0  0  0  0  0  0  0  0  0  0
    8.2925   -3.1651   22.9539 O   0  0  0  0  0  0  0  0  0  0  0  0
    8.8032    1.0666   21.1157 O   0  0  0  0  0  0  0  0  0  0  0  0
    6.7207    1.0114   26.3827 O   0  0  0  0  0  0  0  0  0  0  0  0
   13.4285   -2.1476   21.1124 Cl  0  0  0  0  0  0  0  0  0  0  0  0
    2.5443    3.3508   20.6368 H   0  0  0  0  0  0  0  0  0  0  0  0
    3.5189    2.1137   22.5166 H   0  0  0  0  0  0  0  0  0  0  0  0
    3.3421    2.9744   18.3363 H   0  0  0  0  0  0  0  0  0  0  0  0
    5.3131    0.4893   22.1569 H   0  0  0  0  0  0  0  0  0  0  0  0
   12.5197    0.5897   24.9742 H   0  0  0  0  0  0  0  0  0  0  0  0
   13.9920   -0.5294   23.3862 H   0  0  0  0  0  0  0  0  0  0  0  0
   10.6081   -2.0234   21.2269 H   0  0  0  0  0  0  0  0  0  0  0  0
    4.9151    1.7511   16.7471 H   0  0  0  0  0  0  0  0  0  0  0  0
    7.6455   -0.9765   18.1038 H   0  0  0  0  0  0  0  0  0  0  0  0
    7.0715   -2.7507   20.5926 H   0  0  0  0  0  0  0  0  0  0  0  0
    5.9634   -1.9707   21.8093 H   0  0  0  0  0  0  0  0  0  0  0  0
    6.9294    0.3225   23.5732 H   0  0  0  0  0  0  0  0  0  0  0  0
    7.6810   -0.8510   24.6621 H   0  0  0  0  0  0  0  0  0  0  0  0
    5.4546    3.7085   27.7999 H   0  0  0  0  0  0  0  0  0  0  0  0
    6.4819    2.4355   28.5419 H   0  0  0  0  0  0  0  0  0  0  0  0
    6.9829    4.1583   28.6296 H   0  0  0  0  0  0  0  0  0  0  0  0
    7.4341    2.5192   23.9669 H   0  0  0  0  0  0  0  0  0  0  0  0
    8.8594    2.9654   24.9443 H   0  0  0  0  0  0  0  0  0  0  0  0
    7.6978    4.0599   26.3907 H   0  0  0  0  0  0  0  0  0  0  0  0
  1  2  2  0  0  0  0
  1  3  1  0  0  0  0
  2  4  1  0  0  0  0
  3 10  2  0  0  0  0
  4 11  2  0  0  0  0
  5  6  2  0  0  0  0
  5 12  1  0  0  0  0
  6 15  1  0  0  0  0
  7 13  1  0  0  0  0
  7 15  2  0  0  0  0
  8 10  1  0  0  0  0
  8 25  2  0  0  0  0
  9 14  2  0  0  0  0
  9 25  1  0  0  0  0
 10 11  1  0  0  0  0
 11 14  1  0  0  0  0
 12 13  2  0  0  0  0
 12 16  1  0  0  0  0
 13 22  1  0  0  0  0
 14 26  1  0  0  0  0
 15 33  1  0  0  0  0
 16 27  1  0  0  0  0
 16 29  2  0  0  0  0
 17 20  1  0  0  0  0
 17 22  1  0  0  0  0
 17 30  2  0  0  0  0
 18 22  1  0  0  0  0
 18 26  1  0  0  0  0
 18 31  2  0  0  0  0
 19 24  1  0  0  0  0
 19 28  1  0  0  0  0
 19 32  2  0  0  0  0
 20 26  1  0  0  0  0
 21 22  1  0  0  0  0
 21 27  1  0  0  0  0
 23 28  1  0  0  0  0
 24 27  1  0  0  0  0
  1 34  1  0  0  0  0
  2 35  1  0  0  0  0
  3 36  1  0  0  0  0
  4 37  1  0  0  0  0
  5 38  1  0  0  0  0
  6 39  1  0  0  0  0
  7 40  1  0  0  0  0
  8 41  1  0  0  0  0
  9 42  1  0  0  0  0
 20 43  1  0  0  0  0
 20 44  1  0  0  0  0
 21 45  1  0  0  0  0
 21 46  1  0  0  0  0
 23 47  1  0  0  0  0
 23 48  1  0  0  0  0
 23 49  1  0  0  0  0
 24 50  1  0  0  0  0
 24 51  1  0  0  0  0
 28 52  1  0  0  0  0
M  END
> <scaffold>
tetrahydroisoquinoline-5spiro-isoquinoline

> <compound>
EDJ-MED-a12e3a20-2

> <compound_smiles>
CNC(=O)CN1CC2(c3cc(ccc3C1=O)Cl)C(=O)CN(C2=O)c4cncc5c4cccc5

> <enantiomer_smiles>
CNC(=O)CN1C[C@]2(c3cc(ccc3C1=O)Cl)C(=O)CN(C2=O)c4cncc5c4cccc5

> <clash_score>
0

> <docking_score>
3.4028234663852886e+38

> <overlap_score>
1.0

> <MMFF_internal_energy>
162.16787397049683

> <docked_smiles>
CNC(=O)CN1C[C@]2(c3cc(ccc3C1=O)Cl)C(=O)CN(C2=O)c4cncc5c4cccc5

$$$$
PET-UNK-94036022-7_1
  -OEChem-01042202313D

 55 59  0     1  0  0  0  0  0999 V2000
    3.3444    2.6278   20.4409 C   0  0  0  0  0  0  0  0  0  0  0  0
    3.8974    1.9290   21.5048 C   0  0  0  0  0  0  0  0  0  0  0  0
    3.7877    2.4205   19.1658 C   0  0  0  0  0  0  0  0  0  0  0  0
    4.8986    1.0232   21.2985 C   0  0  0  0  0  0  0  0  0  0  0  0
   12.0781    0.0316   24.1532 C   0  0  0  0  0  0  0  0  0  0  0  0
   12.9147   -0.6032   23.2559 C   0  0  0  0  0  0  0  0  0  0  0  0
   11.0005   -1.4332   22.0435 C   0  0  0  0  0  0  0  0  0  0  0  0
    5.3288    1.2339   17.6062 C   0  0  0  0  0  0  0  0  0  0  0  0
    6.8449   -0.2893   18.3747 C   0  0  0  0  0  0  0  0  0  0  0  0
    4.8238    1.4906   18.9051 C   0  0  0  0  0  0  0  0  0  0  0  0
    5.3995    0.7732   19.9944 C   0  0  0  0  0  0  0  0  0  0  0  0
   10.7056   -0.0626   23.9890 C   0  0  0  0  0  0  0  0  0  0  0  0
   10.1421   -0.7766   22.9242 C   0  0  0  0  0  0  0  0  0  0  0  0
    6.4452   -0.1472   19.6975 C   0  0  0  0  0  0  0  0  0  0  0  0
   12.3697   -1.3298   22.2224 C   0  0  0  0  0  0  0  0  0  0  0  0
    6.9880   -1.9367   21.3575 C   0  0  0  0  0  0  0  0  0  0  0  0
    8.0155   -2.1541   22.4325 C   0  0  0  0  0  0  0  0  0  0  0  0
    8.2504    0.0168   21.4265 C   0  0  0  0  0  0  0  0  0  0  0  0
    6.0121   -2.8148   21.1726 C   0  0  0  0  0  0  0  0  0  0  0  0
    8.9497    3.4727   24.3392 C   0  0  0  0  0  0  0  0  0  0  0  0
    9.9496    0.5589   24.9527 C   0  0  0  0  0  0  0  0  0  0  0  0
    7.8737   -0.1194   23.8825 C   0  0  0  0  0  0  0  0  0  0  0  0
    8.6253   -0.7606   22.6923 C   0  0  2  0  0  0  0  0  0  0  0  0
   10.0269    5.6953   24.1464 C   0  0  0  0  0  0  0  0  0  0  0  0
    8.7405    2.1978   23.5613 C   0  0  0  0  0  0  0  0  0  0  0  0
    6.3072    0.3768   17.3417 N   0  0  0  0  0  0  0  0  0  0  0  0
    7.2305   -0.6898   20.7785 N   0  0  0  0  0  0  0  0  0  0  0  0
    9.6931    4.3944   23.6173 N   0  0  0  0  0  0  0  0  0  0  0  0
    8.6625    1.0133   24.4989 N   0  3  3  0  0  0  0  0  0  0  0  0
    8.2885   -3.1786   22.9749 O   0  0  0  0  0  0  0  0  0  0  0  0
    8.8192    1.0531   21.0834 O   0  0  0  0  0  0  0  0  0  0  0  0
    8.5069    3.6524   25.4705 O   0  0  0  0  0  0  0  0  0  0  0  0
   13.4282   -2.1425   21.1085 Cl  0  0  0  0  0  0  0  0  0  0  0  0
    2.5443    3.3508   20.6368 H   0  0  0  0  0  0  0  0  0  0  0  0
    3.5189    2.1137   22.5166 H   0  0  0  0  0  0  0  0  0  0  0  0
    3.3421    2.9744   18.3363 H   0  0  0  0  0  0  0  0  0  0  0  0
    5.3131    0.4893   22.1569 H   0  0  0  0  0  0  0  0  0  0  0  0
   12.5037    0.5933   24.9772 H   0  0  0  0  0  0  0  0  0  0  0  0
   13.9925   -0.5222   23.3813 H   0  0  0  0  0  0  0  0  0  0  0  0
   10.6056   -2.0215   21.2265 H   0  0  0  0  0  0  0  0  0  0  0  0
    4.9151    1.7511   16.7471 H   0  0  0  0  0  0  0  0  0  0  0  0
    7.6455   -0.9765   18.1038 H   0  0  0  0  0  0  0  0  0  0  0  0
    5.2704   -2.6584   20.3977 H   0  0  0  0  0  0  0  0  0  0  0  0
    5.9366   -3.7030   21.7894 H   0  0  0  0  0  0  0  0  0  0  0  0
    9.7390   -0.1157   25.8235 H   0  0  0  0  0  0  0  0  0  0  0  0
   10.4785    1.4539   25.3751 H   0  0  0  0  0  0  0  0  0  0  0  0
    6.8964    0.2993   23.5810 H   0  0  0  0  0  0  0  0  0  0  0  0
    7.6851   -0.8563   24.6833 H   0  0  0  0  0  0  0  0  0  0  0  0
    9.2529    6.4202   23.8544 H   0  0  0  0  0  0  0  0  0  0  0  0
   10.0832    5.6413   25.2437 H   0  0  0  0  0  0  0  0  0  0  0  0
   10.9995    6.0158   23.7447 H   0  0  0  0  0  0  0  0  0  0  0  0
    9.5813    2.0197   22.8851 H   0  0  0  0  0  0  0  0  0  0  0  0
    7.8033    2.2441   22.9998 H   0  0  0  0  0  0  0  0  0  0  0  0
   10.0386    4.1479   22.6942 H   0  0  0  0  0  0  0  0  0  0  0  0
    8.1098    1.3445   25.3127 H   0  0  0  0  0  0  0  0  0  0  0  0
  1  2  2  0  0  0  0
  1  3  1  0  0  0  0
  2  4  1  0  0  0  0
  3 10  2  0  0  0  0
  4 11  2  0  0  0  0
  5  6  2  0  0  0  0
  5 12  1  0  0  0  0
  6 15  1  0  0  0  0
  7 13  1  0  0  0  0
  7 15  2  0  0  0  0
  8 10  1  0  0  0  0
  8 26  2  0  0  0  0
  9 14  2  0  0  0  0
  9 26  1  0  0  0  0
 10 11  1  0  0  0  0
 11 14  1  0  0  0  0
 12 13  2  0  0  0  0
 12 21  1  0  0  0  0
 13 23  1  6  0  0  0
 14 27  1  0  0  0  0
 15 33  1  0  0  0  0
 16 17  1  0  0  0  0
 16 19  2  0  0  0  0
 16 27  1  0  0  0  0
 17 23  1  1  0  0  0
 17 30  2  0  0  0  0
 18 23  1  1  0  0  0
 18 27  1  0  0  0  0
 18 31  2  0  0  0  0
 20 25  1  0  0  0  0
 20 28  1  0  0  0  0
 20 32  2  0  0  0  0
 21 29  1  0  0  0  0
 22 23  1  6  0  0  0
 22 29  1  0  0  0  0
 24 28  1  0  0  0  0
 25 29  1  0  0  0  0
  1 34  1  0  0  0  0
  2 35  1  0  0  0  0
  3 36  1  0  0  0  0
  4 37  1  0  0  0  0
  5 38  1  0  0  0  0
  6 39  1  0  0  0  0
  7 40  1  0  0  0  0
  8 41  1  0  0  0  0
  9 42  1  0  0  0  0
 19 43  1  0  0  0  0
 19 44  1  0  0  0  0
 21 45  1  0  0  0  0
 21 46  1  0  0  0  0
 22 47  1  0  0  0  0
 22 48  1  0  0  0  0
 24 49  1  0  0  0  0
 24 50  1  0  0  0  0
 24 51  1  0  0  0  0
 25 52  1  0  0  0  0
 25 53  1  0  0  0  0
 28 54  1  0  0  0  0
 29 55  1  0  0  0  0
M  CHG  1  29   1
M  END
> <scaffold>
tetrahydroisoquinoline-5spiro-isoquinoline

> <compound>
PET-UNK-94036022-7

> <compound_smiles>
CNC(=O)CN1Cc2ccc(cc2[C@]3(C1)C(=O)C(=C)N(C3=O)c4cncc5c4cccc5)Cl

> <enantiomer_smiles>
CNC(=O)C[N@]1Cc2ccc(cc2[C@]3(C1)C(=O)C(=C)N(C3=O)c4cncc5c4cccc5)Cl

> <clash_score>
0

> <docking_score>
3.4028234663852886e+38

> <overlap_score>
1.0131927728652954

> <MMFF_internal_energy>
171.71942867718658

> <docked_smiles>
CNC(=O)C[N@@H+]1Cc2ccc(cc2[C@]3(C1)C(=O)C(=C)N(C3=O)c4cncc5c4cccc5)Cl

$$$$
PET-UNK-77d5678a-3_1
  -OEChem-01042202313D

 51 55  0     1  0  0  0  0  0999 V2000
    3.3444    2.6278   20.4409 C   0  0  0  0  0  0  0  0  0  0  0  0
    3.8974    1.9290   21.5048 C   0  0  0  0  0  0  0  0  0  0  0  0
    3.7877    2.4205   19.1658 C   0  0  0  0  0  0  0  0  0  0  0  0
    4.8986    1.0232   21.2985 C   0  0  0  0  0  0  0  0  0  0  0  0
   12.0781    0.0316   24.1532 C   0  0  0  0  0  0  0  0  0  0  0  0
   12.9147   -0.6032   23.2559 C   0  0  0  0  0  0  0  0  0  0  0  0
   11.0005   -1.4332   22.0435 C   0  0  0  0  0  0  0  0  0  0  0  0
    5.3288    1.2339   17.6062 C   0  0  0  0  0  0  0  0  0  0  0  0
    6.8449   -0.2893   18.3747 C   0  0  0  0  0  0  0  0  0  0  0  0
    4.8238    1.4906   18.9051 C   0  0  0  0  0  0  0  0  0  0  0  0
    5.3995    0.7732   19.9944 C   0  0  0  0  0  0  0  0  0  0  0  0
   10.7056   -0.0626   23.9890 C   0  0  0  0  0  0  0  0  0  0  0  0
   10.1421   -0.7766   22.9242 C   0  0  0  0  0  0  0  0  0  0  0  0
    6.4452   -0.1472   19.6975 C   0  0  0  0  0  0  0  0  0  0  0  0
   12.3697   -1.3298   22.2224 C   0  0  0  0  0  0  0  0  0  0  0  0
    9.9496    0.5589   24.9527 C   0  0  0  0  0  0  0  0  0  0  0  0
    6.9880   -1.9367   21.3575 C   0  0  0  0  0  0  0  0  0  0  0  0
    8.2504    0.0168   21.4265 C   0  0  0  0  0  0  0  0  0  0  0  0
    7.2381    2.1806   26.0281 C   0  0  0  0  0  0  0  0  0  0  0  0
    8.0155   -2.1541   22.4325 C   0  0  0  0  0  0  0  0  0  0  0  0
    7.8737   -0.1194   23.8825 C   0  0  0  0  0  0  0  0  0  0  0  0
    8.6253   -0.7606   22.6923 C   0  0  1  0  0  0  0  0  0  0  0  0
    6.4427    0.8370   27.8051 C   0  0  0  0  0  0  0  0  0  0  0  0
    8.0876    2.2170   24.7795 C   0  0  0  0  0  0  0  0  0  0  0  0
    6.3072    0.3768   17.3417 N   0  0  0  0  0  0  0  0  0  0  0  0
    7.2305   -0.6898   20.7785 N   0  0  0  0  0  0  0  0  0  0  0  0
    8.6625    1.0133   24.4989 N   0  0  0  0  0  0  0  0  0  0  0  0
   10.3251    0.7340   26.1064 O   0  0  0  0  0  0  0  0  0  0  0  0
    6.1256   -2.7638   21.0990 O   0  0  0  0  0  0  0  0  0  0  0  0
    8.7812    1.0656   21.0999 O   0  0  0  0  0  0  0  0  0  0  0  0
    6.6399    3.1692   26.4397 O   0  0  0  0  0  0  0  0  0  0  0  0
    7.2270    0.9513   26.6130 O   0  0  0  0  0  0  0  0  0  0  0  0
   13.4287   -2.1485   21.1132 Cl  0  0  0  0  0  0  0  0  0  0  0  0
    2.5443    3.3508   20.6368 H   0  0  0  0  0  0  0  0  0  0  0  0
    3.5189    2.1137   22.5166 H   0  0  0  0  0  0  0  0  0  0  0  0
    3.3421    2.9744   18.3363 H   0  0  0  0  0  0  0  0  0  0  0  0
    5.3131    0.4893   22.1569 H   0  0  0  0  0  0  0  0  0  0  0  0
   12.5193    0.5899   24.9743 H   0  0  0  0  0  0  0  0  0  0  0  0
   13.9921   -0.5285   23.3850 H   0  0  0  0  0  0  0  0  0  0  0  0
   10.6066   -2.0252   21.2291 H   0  0  0  0  0  0  0  0  0  0  0  0
    4.9151    1.7511   16.7471 H   0  0  0  0  0  0  0  0  0  0  0  0
    7.6455   -0.9765   18.1038 H   0  0  0  0  0  0  0  0  0  0  0  0
    7.5414   -2.5801   23.3234 H   0  0  0  0  0  0  0  0  0  0  0  0
    8.7503   -2.8731   22.0498 H   0  0  0  0  0  0  0  0  0  0  0  0
    6.9287    0.3240   23.5694 H   0  0  0  0  0  0  0  0  0  0  0  0
    7.6686   -0.8487   24.6632 H   0  0  0  0  0  0  0  0  0  0  0  0
    6.5054   -0.1850   28.1868 H   0  0  0  0  0  0  0  0  0  0  0  0
    5.4031    1.0916   27.5842 H   0  0  0  0  0  0  0  0  0  0  0  0
    6.8335    1.5283   28.5554 H   0  0  0  0  0  0  0  0  0  0  0  0
    8.8851    2.9523   24.9142 H   0  0  0  0  0  0  0  0  0  0  0  0
    7.4590    2.4845   23.9264 H   0  0  0  0  0  0  0  0  0  0  0  0
  1  2  2  0  0  0  0
  1  3  1  0  0  0  0
  2  4  1  0  0  0  0
  3 10  2  0  0  0  0
  4 11  2  0  0  0  0
  5  6  2  0  0  0  0
  5 12  1  0  0  0  0
  6 15  1  0  0  0  0
  7 13  1  0  0  0  0
  7 15  2  0  0  0  0
  8 10  1  0  0  0  0
  8 25  2  0  0  0  0
  9 14  2  0  0  0  0
  9 25  1  0  0  0  0
 10 11  1  0  0  0  0
 11 14  1  0  0  0  0
 12 13  2  0  0  0  0
 12 16  1  0  0  0  0
 13 22  1  1  0  0  0
 14 26  1  0  0  0  0
 15 33  1  0  0  0  0
 16 27  1  0  0  0  0
 16 28  2  0  0  0  0
 17 20  1  0  0  0  0
 17 26  1  0  0  0  0
 17 29  2  0  0  0  0
 18 22  1  1  0  0  0
 18 26  1  0  0  0  0
 18 30  2  0  0  0  0
 19 24  1  0  0  0  0
 19 31  2  0  0  0  0
 19 32  1  0  0  0  0
 20 22  1  6  0  0  0
 21 22  1  6  0  0  0
 21 27  1  0  0  0  0
 23 32  1  0  0  0  0
 24 27  1  0  0  0  0
  1 34  1  0  0  0  0
  2 35  1  0  0  0  0
  3 36  1  0  0  0  0
  4 37  1  0  0  0  0
  5 38  1  0  0  0  0
  6 39  1  0  0  0  0
  7 40  1  0  0  0  0
  8 41  1  0  0  0  0
  9 42  1  0  0  0  0
 20 43  1  0  0  0  0
 20 44  1  0  0  0  0
 21 45  1  0  0  0  0
 21 46  1  0  0  0  0
 23 47  1  0  0  0  0
 23 48  1  0  0  0  0
 23 49  1  0  0  0  0
 24 50  1  0  0  0  0
 24 51  1  0  0  0  0
M  END
> <scaffold>
tetrahydroisoquinoline-5spiro-isoquinoline

> <compound>
PET-UNK-77d5678a-3

> <compound_smiles>
COC(=O)CN1C[C@]2(CC(=O)N(C2=O)c3cncc4c3cccc4)c5cc(ccc5C1=O)Cl

> <enantiomer_smiles>
COC(=O)CN1C[C@]2(CC(=O)N(C2=O)c3cncc4c3cccc4)c5cc(ccc5C1=O)Cl

> <clash_score>
0

> <docking_score>
3.4028234663852886e+38

> <overlap_score>
1.0152945518493652

> <MMFF_internal_energy>
137.6887222221544

> <docked_smiles>
COC(=O)CN1C[C@]2(CC(=O)N(C2=O)c3cncc4c3cccc4)c5cc(ccc5C1=O)Cl

$$$$
PET-UNK-6af7266d-1_1
  -OEChem-01042202313D

 51 56  0     1  0  0  0  0  0999 V2000
    3.3444    2.6278   20.4409 C   0  0  0  0  0  0  0  0  0  0  0  0
    3.8974    1.9290   21.5048 C   0  0  0  0  0  0  0  0  0  0  0  0
    3.7877    2.4205   19.1658 C   0  0  0  0  0  0  0  0  0  0  0  0
    4.8986    1.0232   21.2985 C   0  0  0  0  0  0  0  0  0  0  0  0
   12.0781    0.0316   24.1532 C   0  0  0  0  0  0  0  0  0  0  0  0
   12.9147   -0.6032   23.2559 C   0  0  0  0  0  0  0  0  0  0  0  0
   11.0005   -1.4332   22.0435 C   0  0  0  0  0  0  0  0  0  0  0  0
    5.3288    1.2339   17.6062 C   0  0  0  0  0  0  0  0  0  0  0  0
    6.8449   -0.2893   18.3747 C   0  0  0  0  0  0  0  0  0  0  0  0
    6.2404    2.7499   28.0805 C   0  0  0  0  0  0  0  0  0  0  0  0
    4.8238    1.4906   18.9051 C   0  0  0  0  0  0  0  0  0  0  0  0
    5.3995    0.7732   19.9944 C   0  0  0  0  0  0  0  0  0  0  0  0
   10.7056   -0.0626   23.9890 C   0  0  0  0  0  0  0  0  0  0  0  0
   10.1421   -0.7766   22.9242 C   0  0  0  0  0  0  0  0  0  0  0  0
    6.4452   -0.1472   19.6975 C   0  0  0  0  0  0  0  0  0  0  0  0
   12.3697   -1.3298   22.2224 C   0  0  0  0  0  0  0  0  0  0  0  0
    7.3127    2.2213   26.0463 C   0  0  0  0  0  0  0  0  0  0  0  0
    9.9496    0.5589   24.9527 C   0  0  0  0  0  0  0  0  0  0  0  0
    8.2504    0.0168   21.4265 C   0  0  0  0  0  0  0  0  0  0  0  0
    8.0155   -2.1541   22.4325 C   0  0  0  0  0  0  0  0  0  0  0  0
    6.9880   -1.9367   21.3575 C   0  0  0  0  0  0  0  0  0  0  0  0
    7.8737   -0.1194   23.8825 C   0  0  0  0  0  0  0  0  0  0  0  0
    8.6253   -0.7606   22.6923 C   0  0  1  0  0  0  0  0  0  0  0  0
    8.0937    2.2235   24.7641 C   0  0  0  0  0  0  0  0  0  0  0  0
    6.3072    0.3768   17.3417 N   0  0  0  0  0  0  0  0  0  0  0  0
    6.0536    1.4916   27.7433 N   0  0  0  0  0  0  0  0  0  0  0  0
    6.6834    1.1813   26.5506 N   0  0  0  0  0  0  0  0  0  0  0  0
    7.2305   -0.6898   20.7785 N   0  0  0  0  0  0  0  0  0  0  0  0
    8.6625    1.0133   24.4989 N   0  0  0  0  0  0  0  0  0  0  0  0
   10.3233    0.7301   26.1084 O   0  0  0  0  0  0  0  0  0  0  0  0
    8.8205    1.0412   21.0776 O   0  0  0  0  0  0  0  0  0  0  0  0
    7.1915    3.6562   26.9778 S   0  0  0  0  0  0  0  0  0  0  0  0
   13.4288   -2.1465   21.1124 Cl  0  0  0  0  0  0  0  0  0  0  0  0
    2.5443    3.3508   20.6368 H   0  0  0  0  0  0  0  0  0  0  0  0
    3.5189    2.1137   22.5166 H   0  0  0  0  0  0  0  0  0  0  0  0
    3.3421    2.9744   18.3363 H   0  0  0  0  0  0  0  0  0  0  0  0
    5.3131    0.4893   22.1569 H   0  0  0  0  0  0  0  0  0  0  0  0
   12.5188    0.5961   24.9710 H   0  0  0  0  0  0  0  0  0  0  0  0
   13.9920   -0.5226   23.3817 H   0  0  0  0  0  0  0  0  0  0  0  0
   10.6143   -2.0253   21.2266 H   0  0  0  0  0  0  0  0  0  0  0  0
    4.9151    1.7511   16.7471 H   0  0  0  0  0  0  0  0  0  0  0  0
    7.6455   -0.9765   18.1038 H   0  0  0  0  0  0  0  0  0  0  0  0
    5.8270    3.1803   28.9816 H   0  0  0  0  0  0  0  0  0  0  0  0
    7.5128   -2.5277   23.3386 H   0  0  0  0  0  0  0  0  0  0  0  0
    8.7593   -2.9102   22.1430 H   0  0  0  0  0  0  0  0  0  0  0  0
    7.0602   -2.7255   20.5716 H   0  0  0  0  0  0  0  0  0  0  0  0
    5.9526   -1.9964   21.7706 H   0  0  0  0  0  0  0  0  0  0  0  0
    6.9217    0.3182   23.5732 H   0  0  0  0  0  0  0  0  0  0  0  0
    7.6678   -0.8543   24.6617 H   0  0  0  0  0  0  0  0  0  0  0  0
    7.4480    2.4865   23.9191 H   0  0  0  0  0  0  0  0  0  0  0  0
    8.9021    2.9615   24.7977 H   0  0  0  0  0  0  0  0  0  0  0  0
  1  2  2  0  0  0  0
  1  3  1  0  0  0  0
  2  4  1  0  0  0  0
  3 11  2  0  0  0  0
  4 12  2  0  0  0  0
  5  6  2  0  0  0  0
  5 13  1  0  0  0  0
  6 16  1  0  0  0  0
  7 14  1  0  0  0  0
  7 16  2  0  0  0  0
  8 11  1  0  0  0  0
  8 25  2  0  0  0  0
  9 15  2  0  0  0  0
  9 25  1  0  0  0  0
 10 26  2  0  0  0  0
 10 32  1  0  0  0  0
 11 12  1  0  0  0  0
 12 15  1  0  0  0  0
 13 14  2  0  0  0  0
 13 18  1  0  0  0  0
 14 23  1  6  0  0  0
 15 28  1  0  0  0  0
 16 33  1  0  0  0  0
 17 24  1  0  0  0  0
 17 27  2  0  0  0  0
 17 32  1  0  0  0  0
 18 29  1  0  0  0  0
 18 30  2  0  0  0  0
 19 23  1  1  0  0  0
 19 28  1  0  0  0  0
 19 31  2  0  0  0  0
 20 21  1  0  0  0  0
 20 23  1  1  0  0  0
 21 28  1  0  0  0  0
 22 23  1  6  0  0  0
 22 29  1  0  0  0  0
 24 29  1  0  0  0  0
 26 27  1  0  0  0  0
  1 34  1  0  0  0  0
  2 35  1  0  0  0  0
  3 36  1  0  0  0  0
  4 37  1  0  0  0  0
  5 38  1  0  0  0  0
  6 39  1  0  0  0  0
  7 40  1  0  0  0  0
  8 41  1  0  0  0  0
  9 42  1  0  0  0  0
 10 43  1  0  0  0  0
 20 44  1  0  0  0  0
 20 45  1  0  0  0  0
 21 46  1  0  0  0  0
 21 47  1  0  0  0  0
 22 48  1  0  0  0  0
 22 49  1  0  0  0  0
 24 50  1  0  0  0  0
 24 51  1  0  0  0  0
M  END
> <scaffold>
tetrahydroisoquinoline-5spiro-isoquinoline

> <compound>
PET-UNK-6af7266d-1

> <compound_smiles>
c1ccc2c(c1)cncc2N3CC[C@@]4(C3=O)CN(C(=O)c5c4cc(cc5)Cl)Cc6nncs6

> <enantiomer_smiles>
c1ccc2c(c1)cncc2N3CC[C@@]4(C3=O)CN(C(=O)c5c4cc(cc5)Cl)Cc6nncs6

> <clash_score>
0

> <docking_score>
3.4028234663852886e+38

> <overlap_score>
0.9871382117271423

> <MMFF_internal_energy>
156.85057594770979

> <docked_smiles>
c1ccc2c(c1)cncc2N3CC[C@@]4(C3=O)CN(C(=O)c5c4cc(cc5)Cl)Cc6nncs6

$$$$
PET-UNK-6af7266d-3_1
  -OEChem-01042202313D

 51 56  0     1  0  0  0  0  0999 V2000
    3.3444    2.6278   20.4409 C   0  0  0  0  0  0  0  0  0  0  0  0
    3.8974    1.9290   21.5048 C   0  0  0  0  0  0  0  0  0  0  0  0
    3.7877    2.4205   19.1658 C   0  0  0  0  0  0  0  0  0  0  0  0
    4.8986    1.0232   21.2985 C   0  0  0  0  0  0  0  0  0  0  0  0
   12.0781    0.0316   24.1532 C   0  0  0  0  0  0  0  0  0  0  0  0
   12.9147   -0.6032   23.2559 C   0  0  0  0  0  0  0  0  0  0  0  0
   11.0005   -1.4332   22.0435 C   0  0  0  0  0  0  0  0  0  0  0  0
    5.3288    1.2339   17.6062 C   0  0  0  0  0  0  0  0  0  0  0  0
    6.8449   -0.2893   18.3747 C   0  0  0  0  0  0  0  0  0  0  0  0
    6.2404    2.7499   28.0805 C   0  0  0  0  0  0  0  0  0  0  0  0
    4.8238    1.4906   18.9051 C   0  0  0  0  0  0  0  0  0  0  0  0
    5.3995    0.7732   19.9944 C   0  0  0  0  0  0  0  0  0  0  0  0
   10.7056   -0.0626   23.9890 C   0  0  0  0  0  0  0  0  0  0  0  0
   10.1421   -0.7766   22.9242 C   0  0  0  0  0  0  0  0  0  0  0  0
    6.4452   -0.1472   19.6975 C   0  0  0  0  0  0  0  0  0  0  0  0
   12.3697   -1.3298   22.2224 C   0  0  0  0  0  0  0  0  0  0  0  0
    7.3127    2.2213   26.0463 C   0  0  0  0  0  0  0  0  0  0  0  0
    9.9496    0.5589   24.9527 C   0  0  0  0  0  0  0  0  0  0  0  0
    8.2504    0.0168   21.4265 C   0  0  0  0  0  0  0  0  0  0  0  0
    8.0155   -2.1541   22.4325 C   0  0  0  0  0  0  0  0  0  0  0  0
    6.9880   -1.9367   21.3575 C   0  0  0  0  0  0  0  0  0  0  0  0
    7.8737   -0.1194   23.8825 C   0  0  0  0  0  0  0  0  0  0  0  0
    8.6253   -0.7606   22.6923 C   0  0  3  0  0  0  0  0  0  0  0  0
    8.0937    2.2235   24.7641 C   0  0  0  0  0  0  0  0  0  0  0  0
    6.3072    0.3768   17.3417 N   0  0  0  0  0  0  0  0  0  0  0  0
    6.0536    1.4916   27.7433 N   0  0  0  0  0  0  0  0  0  0  0  0
    6.6834    1.1813   26.5506 N   0  0  0  0  0  0  0  0  0  0  0  0
    7.2305   -0.6898   20.7785 N   0  0  0  0  0  0  0  0  0  0  0  0
    8.6625    1.0133   24.4989 N   0  0  0  0  0  0  0  0  0  0  0  0
   10.3233    0.7301   26.1084 O   0  0  0  0  0  0  0  0  0  0  0  0
    8.8205    1.0412   21.0776 O   0  0  0  0  0  0  0  0  0  0  0  0
    7.1915    3.6562   26.9778 S   0  0  0  0  0  0  0  0  0  0  0  0
   13.4288   -2.1465   21.1124 Cl  0  0  0  0  0  0  0  0  0  0  0  0
    2.5443    3.3508   20.6368 H   0  0  0  0  0  0  0  0  0  0  0  0
    3.5189    2.1137   22.5166 H   0  0  0  0  0  0  0  0  0  0  0  0
    3.3421    2.9744   18.3363 H   0  0  0  0  0  0  0  0  0  0  0  0
    5.3131    0.4893   22.1569 H   0  0  0  0  0  0  0  0  0  0  0  0
   12.5188    0.5961   24.9710 H   0  0  0  0  0  0  0  0  0  0  0  0
   13.9920   -0.5226   23.3817 H   0  0  0  0  0  0  0  0  0  0  0  0
   10.6143   -2.0253   21.2266 H   0  0  0  0  0  0  0  0  0  0  0  0
    4.9151    1.7511   16.7471 H   0  0  0  0  0  0  0  0  0  0  0  0
    7.6455   -0.9765   18.1038 H   0  0  0  0  0  0  0  0  0  0  0  0
    5.8270    3.1803   28.9816 H   0  0  0  0  0  0  0  0  0  0  0  0
    7.5128   -2.5277   23.3386 H   0  0  0  0  0  0  0  0  0  0  0  0
    8.7593   -2.9102   22.1430 H   0  0  0  0  0  0  0  0  0  0  0  0
    7.0602   -2.7255   20.5716 H   0  0  0  0  0  0  0  0  0  0  0  0
    5.9526   -1.9964   21.7706 H   0  0  0  0  0  0  0  0  0  0  0  0
    6.9217    0.3182   23.5732 H   0  0  0  0  0  0  0  0  0  0  0  0
    7.6678   -0.8543   24.6617 H   0  0  0  0  0  0  0  0  0  0  0  0
    7.4480    2.4865   23.9191 H   0  0  0  0  0  0  0  0  0  0  0  0
    8.9021    2.9615   24.7977 H   0  0  0  0  0  0  0  0  0  0  0  0
  1  2  2  0  0  0  0
  1  3  1  0  0  0  0
  2  4  1  0  0  0  0
  3 11  2  0  0  0  0
  4 12  2  0  0  0  0
  5  6  2  0  0  0  0
  5 13  1  0  0  0  0
  6 16  1  0  0  0  0
  7 14  1  0  0  0  0
  7 16  2  0  0  0  0
  8 11  1  0  0  0  0
  8 25  2  0  0  0  0
  9 15  2  0  0  0  0
  9 25  1  0  0  0  0
 10 26  2  0  0  0  0
 10 32  1  0  0  0  0
 11 12  1  0  0  0  0
 12 15  1  0  0  0  0
 13 14  2  0  0  0  0
 13 18  1  0  0  0  0
 14 23  1  0  0  0  0
 15 28  1  0  0  0  0
 16 33  1  0  0  0  0
 17 24  1  0  0  0  0
 17 27  2  0  0  0  0
 17 32  1  0  0  0  0
 18 29  1  0  0  0  0
 18 30  2  0  0  0  0
 19 23  1  0  0  0  0
 19 28  1  0  0  0  0
 19 31  2  0  0  0  0
 20 21  1  0  0  0  0
 20 23  1  0  0  0  0
 21 28  1  0  0  0  0
 22 23  1  0  0  0  0
 22 29  1  0  0  0  0
 24 29  1  0  0  0  0
 26 27  1  0  0  0  0
  1 34  1  0  0  0  0
  2 35  1  0  0  0  0
  3 36  1  0  0  0  0
  4 37  1  0  0  0  0
  5 38  1  0  0  0  0
  6 39  1  0  0  0  0
  7 40  1  0  0  0  0
  8 41  1  0  0  0  0
  9 42  1  0  0  0  0
 10 43  1  0  0  0  0
 20 44  1  0  0  0  0
 20 45  1  0  0  0  0
 21 46  1  0  0  0  0
 21 47  1  0  0  0  0
 22 48  1  0  0  0  0
 22 49  1  0  0  0  0
 24 50  1  0  0  0  0
 24 51  1  0  0  0  0
M  END
> <scaffold>
tetrahydroisoquinoline-5spiro-isoquinoline

> <compound>
PET-UNK-6af7266d-3

> <compound_smiles>
c1ccc2c(c1)cncc2N3CCC4(C3=O)CN(C(=O)c5c4cc(cc5)Cl)Cc6nncs6

> <enantiomer_smiles>
c1ccc2c(c1)cncc2N3CC[C@@]4(C3=O)CN(C(=O)c5c4cc(cc5)Cl)Cc6nncs6

> <clash_score>
0

> <docking_score>
3.4028234663852886e+38

> <overlap_score>
0.9871382117271423

> <MMFF_internal_energy>
156.85057594770979

> <docked_smiles>
c1ccc2c(c1)cncc2N3CC[C@@]4(C3=O)CN(C(=O)c5c4cc(cc5)Cl)Cc6nncs6

$$$$
VLA-UCB-34f3ed0c-15_1
  -OEChem-01042202313D

 59 64  0     1  0  0  0  0  0999 V2000
    3.3444    2.6278   20.4409 C   0  0  0  0  0  0  0  0  0  0  0  0
    3.8974    1.9290   21.5048 C   0  0  0  0  0  0  0  0  0  0  0  0
    3.7877    2.4205   19.1658 C   0  0  0  0  0  0  0  0  0  0  0  0
    4.8986    1.0232   21.2985 C   0  0  0  0  0  0  0  0  0  0  0  0
   12.0781    0.0316   24.1532 C   0  0  0  0  0  0  0  0  0  0  0  0
   12.9147   -0.6032   23.2559 C   0  0  0  0  0  0  0  0  0  0  0  0
   11.0005   -1.4332   22.0435 C   0  0  0  0  0  0  0  0  0  0  0  0
    5.3288    1.2339   17.6062 C   0  0  0  0  0  0  0  0  0  0  0  0
    6.8449   -0.2893   18.3747 C   0  0  0  0  0  0  0  0  0  0  0  0
    4.8238    1.4906   18.9051 C   0  0  0  0  0  0  0  0  0  0  0  0
    5.3995    0.7732   19.9944 C   0  0  0  0  0  0  0  0  0  0  0  0
   10.1421   -0.7766   22.9242 C   0  0  0  0  0  0  0  0  0  0  0  0
    6.4452   -0.1472   19.6975 C   0  0  0  0  0  0  0  0  0  0  0  0
   10.7056   -0.0626   23.9890 C   0  0  0  0  0  0  0  0  0  0  0  0
   12.3697   -1.3298   22.2224 C   0  0  0  0  0  0  0  0  0  0  0  0
    8.2504    0.0168   21.4265 C   0  0  0  0  0  0  0  0  0  0  0  0
    6.9880   -1.9367   21.3575 C   0  0  0  0  0  0  0  0  0  0  0  0
    7.8737   -0.1194   23.8825 C   0  0  0  0  0  0  0  0  0  0  0  0
    8.6947   -4.9075   21.3649 C   0  0  0  0  0  0  0  0  0  0  0  0
    9.9248   -5.0236   23.4491 C   0  0  0  0  0  0  0  0  0  0  0  0
    9.7515   -5.7483   20.6585 C   0  0  0  0  0  0  0  0  0  0  0  0
   11.0132   -5.8671   22.7959 C   0  0  0  0  0  0  0  0  0  0  0  0
    8.6625    1.0133   24.4989 C   0  0  0  0  0  0  0  0  0  0  0  0
    8.6253   -0.7606   22.6923 C   0  0  2  0  0  0  0  0  0  0  0  0
    8.2670   -3.3056   23.1149 C   0  0  0  0  0  0  0  0  0  0  0  0
    6.3072    0.3768   17.3417 N   0  0  0  0  0  0  0  0  0  0  0  0
    7.2305   -0.6898   20.7785 N   0  0  0  0  0  0  0  0  0  0  0  0
    8.0155   -2.1541   22.4325 N   0  0  0  0  0  0  0  0  0  0  0  0
    9.2837   -4.1347   22.4686 N   0  0  0  0  0  0  0  0  0  0  0  0
   10.4197   -6.6305   21.6595 N   0  3  0  0  0  0  0  0  0  0  0  0
    8.8030    1.0413   21.0842 O   0  0  0  0  0  0  0  0  0  0  0  0
    6.1158   -2.7517   21.1386 O   0  0  0  0  0  0  0  0  0  0  0  0
    9.9496    0.5589   24.9527 O   0  0  0  0  0  0  0  0  0  0  0  0
   13.4278   -2.1472   21.1115 Cl  0  0  0  0  0  0  0  0  0  0  0  0
    2.5443    3.3508   20.6368 H   0  0  0  0  0  0  0  0  0  0  0  0
    3.5189    2.1137   22.5166 H   0  0  0  0  0  0  0  0  0  0  0  0
    3.3421    2.9744   18.3363 H   0  0  0  0  0  0  0  0  0  0  0  0
    5.3131    0.4893   22.1569 H   0  0  0  0  0  0  0  0  0  0  0  0
   12.5017    0.6065   24.9715 H   0  0  0  0  0  0  0  0  0  0  0  0
   13.9924   -0.5157   23.3773 H   0  0  0  0  0  0  0  0  0  0  0  0
   10.6031   -2.0252   21.2295 H   0  0  0  0  0  0  0  0  0  0  0  0
    4.9151    1.7511   16.7471 H   0  0  0  0  0  0  0  0  0  0  0  0
    7.6455   -0.9765   18.1038 H   0  0  0  0  0  0  0  0  0  0  0  0
    7.7144   -0.8754   24.6692 H   0  0  0  0  0  0  0  0  0  0  0  0
    6.8760    0.2356   23.5741 H   0  0  0  0  0  0  0  0  0  0  0  0
    8.2625   -4.2221   20.6307 H   0  0  0  0  0  0  0  0  0  0  0  0
    7.8906   -5.5543   21.7293 H   0  0  0  0  0  0  0  0  0  0  0  0
    9.1853   -5.6768   23.9233 H   0  0  0  0  0  0  0  0  0  0  0  0
   10.3897   -4.4229   24.2355 H   0  0  0  0  0  0  0  0  0  0  0  0
    9.3061   -6.4024   19.9031 H   0  0  0  0  0  0  0  0  0  0  0  0
   10.5294   -5.1335   20.1929 H   0  0  0  0  0  0  0  0  0  0  0  0
   11.8264   -5.2554   22.3904 H   0  0  0  0  0  0  0  0  0  0  0  0
   11.4256   -6.6017   23.4937 H   0  0  0  0  0  0  0  0  0  0  0  0
    8.8025    1.8559   23.8153 H   0  0  0  0  0  0  0  0  0  0  0  0
    8.1356    1.3957   25.3777 H   0  0  0  0  0  0  0  0  0  0  0  0
    7.3407   -3.8808   23.1860 H   0  0  0  0  0  0  0  0  0  0  0  0
    8.6165   -3.0421   24.1162 H   0  0  0  0  0  0  0  0  0  0  0  0
    9.7416   -7.3155   22.0217 H   0  0  0  0  0  0  0  0  0  0  0  0
   11.1542   -7.1821   21.1953 H   0  0  0  0  0  0  0  0  0  0  0  0
  1  2  2  0  0  0  0
  1  3  1  0  0  0  0
  2  4  1  0  0  0  0
  3 10  2  0  0  0  0
  4 11  2  0  0  0  0
  5  6  2  0  0  0  0
  5 14  1  0  0  0  0
  6 15  1  0  0  0  0
  7 12  1  0  0  0  0
  7 15  2  0  0  0  0
  8 10  1  0  0  0  0
  8 26  2  0  0  0  0
  9 13  2  0  0  0  0
  9 26  1  0  0  0  0
 10 11  1  0  0  0  0
 11 13  1  0  0  0  0
 12 14  2  0  0  0  0
 12 24  1  6  0  0  0
 13 27  1  0  0  0  0
 14 33  1  0  0  0  0
 15 34  1  0  0  0  0
 16 24  1  1  0  0  0
 16 27  1  0  0  0  0
 16 31  2  0  0  0  0
 17 27  1  0  0  0  0
 17 28  1  0  0  0  0
 17 32  2  0  0  0  0
 18 23  1  0  0  0  0
 18 24  1  1  0  0  0
 19 21  1  0  0  0  0
 19 29  1  0  0  0  0
 20 22  1  0  0  0  0
 20 29  1  0  0  0  0
 21 30  1  0  0  0  0
 22 30  1  0  0  0  0
 23 33  1  0  0  0  0
 24 28  1  6  0  0  0
 25 28  1  0  0  0  0
 25 29  1  0  0  0  0
  1 35  1  0  0  0  0
  2 36  1  0  0  0  0
  3 37  1  0  0  0  0
  4 38  1  0  0  0  0
  5 39  1  0  0  0  0
  6 40  1  0  0  0  0
  7 41  1  0  0  0  0
  8 42  1  0  0  0  0
  9 43  1  0  0  0  0
 18 44  1  0  0  0  0
 18 45  1  0  0  0  0
 19 46  1  0  0  0  0
 19 47  1  0  0  0  0
 20 48  1  0  0  0  0
 20 49  1  0  0  0  0
 21 50  1  0  0  0  0
 21 51  1  0  0  0  0
 22 52  1  0  0  0  0
 22 53  1  0  0  0  0
 23 54  1  0  0  0  0
 23 55  1  0  0  0  0
 25 56  1  0  0  0  0
 25 57  1  0  0  0  0
 30 58  1  0  0  0  0
 30 59  1  0  0  0  0
M  CHG  1  30   1
M  END
> <scaffold>
chromane-5spiro-isoquinoline

> <compound>
VLA-UCB-34f3ed0c-15

> <compound_smiles>
c1ccc2c(c1)cncc2N3C(=O)[C@@]4(CCOc5c4cc(cc5)Cl)N(C3=O)CN6CCNCC6

> <enantiomer_smiles>
c1ccc2c(c1)cncc2N3C(=O)[C@@]4(CCOc5c4cc(cc5)Cl)N(C3=O)CN6CCNCC6

> <clash_score>
8.51054280894245

> <docking_score>
3.4028234663852886e+38

> <overlap_score>
1.0

> <MMFF_internal_energy>
108.21119905301694

> <docked_smiles>
c1ccc2c(c1)cncc2N3C(=O)[C@@]4(CCOc5c4cc(cc5)Cl)N(C3=O)CN6CC[NH2+]CC6

$$$$
MAT-POS-69786b79-2_1
  -OEChem-01042202313D

 59 64  0     1  0  0  0  0  0999 V2000
    3.3444    2.6278   20.4409 C   0  0  0  0  0  0  0  0  0  0  0  0
    3.8974    1.9290   21.5048 C   0  0  0  0  0  0  0  0  0  0  0  0
    3.7877    2.4205   19.1658 C   0  0  0  0  0  0  0  0  0  0  0  0
    4.8986    1.0232   21.2985 C   0  0  0  0  0  0  0  0  0  0  0  0
   12.0781    0.0316   24.1532 C   0  0  0  0  0  0  0  0  0  0  0  0
   12.9147   -0.6032   23.2559 C   0  0  0  0  0  0  0  0  0  0  0  0
   11.0005   -1.4332   22.0435 C   0  0  0  0  0  0  0  0  0  0  0  0
    5.3288    1.2339   17.6062 C   0  0  0  0  0  0  0  0  0  0  0  0
    6.8449   -0.2893   18.3747 C   0  0  0  0  0  0  0  0  0  0  0  0
    4.8238    1.4906   18.9051 C   0  0  0  0  0  0  0  0  0  0  0  0
    5.3995    0.7732   19.9944 C   0  0  0  0  0  0  0  0  0  0  0  0
   10.7056   -0.0626   23.9890 C   0  0  0  0  0  0  0  0  0  0  0  0
   10.1421   -0.7766   22.9242 C   0  0  0  0  0  0  0  0  0  0  0  0
    6.4452   -0.1472   19.6975 C   0  0  0  0  0  0  0  0  0  0  0  0
   12.3697   -1.3298   22.2224 C   0  0  0  0  0  0  0  0  0  0  0  0
    8.2504    0.0168   21.4265 C   0  0  0  0  0  0  0  0  0  0  0  0
    6.7850    2.6041   25.0047 C   0  0  0  0  0  0  0  0  0  0  0  0
    9.9496    0.5589   24.9527 C   0  0  0  0  0  0  0  0  0  0  0  0
    3.5770    3.6153   25.4425 C   0  0  0  0  0  0  0  0  0  0  0  0
    3.8614    4.3654   26.7095 C   0  0  0  0  0  0  0  0  0  0  0  0
    8.0155   -2.1541   22.4325 C   0  0  0  0  0  0  0  0  0  0  0  0
    6.9880   -1.9367   21.3575 C   0  0  0  0  0  0  0  0  0  0  0  0
    7.8737   -0.1194   23.8825 C   0  0  0  0  0  0  0  0  0  0  0  0
    4.9649    4.1271   25.7155 C   0  0  0  0  0  0  0  0  0  0  0  0
    8.6253   -0.7606   22.6923 C   0  0  3  0  0  0  0  0  0  0  0  0
    7.8612    1.7144   25.5743 C   0  0  0  0  0  0  0  0  0  0  0  0
    6.3072    0.3768   17.3417 N   0  0  0  0  0  0  0  0  0  0  0  0
    7.2305   -0.6898   20.7785 N   0  0  0  0  0  0  0  0  0  0  0  0
    6.0523    3.2234   26.0062 N   0  0  0  0  0  0  0  0  0  0  0  0
    8.6625    1.0133   24.4989 N   0  3  3  0  0  0  0  0  0  0  0  0
    8.8307    1.0396   21.0789 O   0  0  0  0  0  0  0  0  0  0  0  0
    6.5982    2.7493   23.7996 O   0  0  0  0  0  0  0  0  0  0  0  0
   13.4286   -2.1403   21.1072 Cl  0  0  0  0  0  0  0  0  0  0  0  0
    2.5443    3.3508   20.6368 H   0  0  0  0  0  0  0  0  0  0  0  0
    3.5189    2.1137   22.5166 H   0  0  0  0  0  0  0  0  0  0  0  0
    3.3421    2.9744   18.3363 H   0  0  0  0  0  0  0  0  0  0  0  0
    5.3131    0.4893   22.1569 H   0  0  0  0  0  0  0  0  0  0  0  0
   12.5040    0.5973   24.9741 H   0  0  0  0  0  0  0  0  0  0  0  0
   13.9926   -0.5176   23.3780 H   0  0  0  0  0  0  0  0  0  0  0  0
   10.6057   -2.0168   21.2239 H   0  0  0  0  0  0  0  0  0  0  0  0
    4.9151    1.7511   16.7471 H   0  0  0  0  0  0  0  0  0  0  0  0
    7.6455   -0.9765   18.1038 H   0  0  0  0  0  0  0  0  0  0  0  0
    9.7630   -0.1207   25.8244 H   0  0  0  0  0  0  0  0  0  0  0  0
   10.4585    1.4662   25.3691 H   0  0  0  0  0  0  0  0  0  0  0  0
    3.3949    2.5503   25.5185 H   0  0  0  0  0  0  0  0  0  0  0  0
    2.9960    4.1168   24.6783 H   0  0  0  0  0  0  0  0  0  0  0  0
    3.4719    5.3721   26.7986 H   0  0  0  0  0  0  0  0  0  0  0  0
    3.8701    3.8037   27.6356 H   0  0  0  0  0  0  0  0  0  0  0  0
    7.5159   -2.5477   23.3319 H   0  0  0  0  0  0  0  0  0  0  0  0
    8.7613   -2.9061   22.1409 H   0  0  0  0  0  0  0  0  0  0  0  0
    7.0594   -2.7244   20.5709 H   0  0  0  0  0  0  0  0  0  0  0  0
    5.9531   -1.9957   21.7710 H   0  0  0  0  0  0  0  0  0  0  0  0
    6.8972    0.2930   23.5750 H   0  0  0  0  0  0  0  0  0  0  0  0
    7.6778   -0.8486   24.6901 H   0  0  0  0  0  0  0  0  0  0  0  0
    5.2902    4.9839   25.1353 H   0  0  0  0  0  0  0  0  0  0  0  0
    7.4204    0.9331   26.1997 H   0  0  0  0  0  0  0  0  0  0  0  0
    8.5777    2.3054   26.1514 H   0  0  0  0  0  0  0  0  0  0  0  0
    6.2643    3.0239   26.9796 H   0  0  0  0  0  0  0  0  0  0  0  0
    8.7953    1.7233   23.7550 H   0  0  0  0  0  0  0  0  0  0  0  0
  1  2  2  0  0  0  0
  1  3  1  0  0  0  0
  2  4  1  0  0  0  0
  3 10  2  0  0  0  0
  4 11  2  0  0  0  0
  5  6  2  0  0  0  0
  5 12  1  0  0  0  0
  6 15  1  0  0  0  0
  7 13  1  0  0  0  0
  7 15  2  0  0  0  0
  8 10  1  0  0  0  0
  8 27  2  0  0  0  0
  9 14  2  0  0  0  0
  9 27  1  0  0  0  0
 10 11  1  0  0  0  0
 11 14  1  0  0  0  0
 12 13  2  0  0  0  0
 12 18  1  0  0  0  0
 13 25  1  0  0  0  0
 14 28  1  0  0  0  0
 15 33  1  0  0  0  0
 16 25  1  0  0  0  0
 16 28  1  0  0  0  0
 16 31  2  0  0  0  0
 17 26  1  0  0  0  0
 17 29  1  0  0  0  0
 17 32  2  0  0  0  0
 18 30  1  0  0  0  0
 19 20  1  0  0  0  0
 19 24  1  0  0  0  0
 20 24  1  0  0  0  0
 21 22  1  0  0  0  0
 21 25  1  0  0  0  0
 22 28  1  0  0  0  0
 23 25  1  0  0  0  0
 23 30  1  0  0  0  0
 24 29  1  0  0  0  0
 26 30  1  0  0  0  0
  1 34  1  0  0  0  0
  2 35  1  0  0  0  0
  3 36  1  0  0  0  0
  4 37  1  0  0  0  0
  5 38  1  0  0  0  0
  6 39  1  0  0  0  0
  7 40  1  0  0  0  0
  8 41  1  0  0  0  0
  9 42  1  0  0  0  0
 18 43  1  0  0  0  0
 18 44  1  0  0  0  0
 19 45  1  0  0  0  0
 19 46  1  0  0  0  0
 20 47  1  0  0  0  0
 20 48  1  0  0  0  0
 21 49  1  0  0  0  0
 21 50  1  0  0  0  0
 22 51  1  0  0  0  0
 22 52  1  0  0  0  0
 23 53  1  0  0  0  0
 23 54  1  0  0  0  0
 24 55  1  0  0  0  0
 26 56  1  0  0  0  0
 26 57  1  0  0  0  0
 29 58  1  0  0  0  0
 30 59  1  0  0  0  0
M  CHG  1  30   1
M  END
> <scaffold>
tetrahydroisoquinoline-5spiro-isoquinoline

> <compound>
MAT-POS-69786b79-2

> <compound_smiles>
c1ccc2c(c1)cncc2N3CCC4(C3=O)CN(Cc5c4cc(cc5)Cl)CC(=O)NC6CC6

> <enantiomer_smiles>
c1ccc2c(c1)cncc2N3CC[C@]4(C3=O)C[N@](Cc5c4cc(cc5)Cl)CC(=O)NC6CC6

> <clash_score>
0

> <docking_score>
3.4028234663852886e+38

> <overlap_score>
0.973731517791748

> <MMFF_internal_energy>
169.18739372014417

> <docked_smiles>
c1ccc2c(c1)cncc2N3CC[C@]4(C3=O)C[N@H+](Cc5c4cc(cc5)Cl)CC(=O)NC6CC6

$$$$
VLA-UNK-f702bf1c-1_1
  -OEChem-01042202313D

 54 59  0     1  0  0  0  0  0999 V2000
    3.3444    2.6278   20.4409 C   0  0  0  0  0  0  0  0  0  0  0  0
    3.8974    1.9290   21.5048 C   0  0  0  0  0  0  0  0  0  0  0  0
    3.7877    2.4205   19.1658 C   0  0  0  0  0  0  0  0  0  0  0  0
    4.8986    1.0232   21.2985 C   0  0  0  0  0  0  0  0  0  0  0  0
   12.0781    0.0316   24.1532 C   0  0  0  0  0  0  0  0  0  0  0  0
   12.9147   -0.6032   23.2559 C   0  0  0  0  0  0  0  0  0  0  0  0
   10.0959   -6.2429   23.5441 C   0  0  0  0  0  0  0  0  0  0  0  0
   11.0005   -1.4332   22.0435 C   0  0  0  0  0  0  0  0  0  0  0  0
    9.6886   -7.4782   24.0827 C   0  0  0  0  0  0  0  0  0  0  0  0
    5.3288    1.2339   17.6062 C   0  0  0  0  0  0  0  0  0  0  0  0
    6.8449   -0.2893   18.3747 C   0  0  0  0  0  0  0  0  0  0  0  0
    4.8238    1.4906   18.9051 C   0  0  0  0  0  0  0  0  0  0  0  0
    5.3995    0.7732   19.9944 C   0  0  0  0  0  0  0  0  0  0  0  0
   10.1421   -0.7766   22.9242 C   0  0  0  0  0  0  0  0  0  0  0  0
    6.4452   -0.1472   19.6975 C   0  0  0  0  0  0  0  0  0  0  0  0
   10.7056   -0.0626   23.9890 C   0  0  0  0  0  0  0  0  0  0  0  0
   12.3697   -1.3298   22.2224 C   0  0  0  0  0  0  0  0  0  0  0  0
    8.9630   -5.7337   22.9578 C   0  0  0  0  0  0  0  0  0  0  0  0
    8.2504    0.0168   21.4265 C   0  0  0  0  0  0  0  0  0  0  0  0
    6.9880   -1.9367   21.3575 C   0  0  0  0  0  0  0  0  0  0  0  0
    7.8737   -0.1194   23.8825 C   0  0  0  0  0  0  0  0  0  0  0  0
    8.6625    1.0133   24.4989 C   0  0  0  0  0  0  0  0  0  0  0  0
    8.6253   -0.7606   22.6923 C   0  0  2  0  0  0  0  0  0  0  0  0
    8.7069   -4.4507   22.2060 C   0  0  0  0  0  0  0  0  0  0  0  0
    8.2670   -3.3056   23.1149 C   0  0  0  0  0  0  0  0  0  0  0  0
    6.3072    0.3768   17.3417 N   0  0  0  0  0  0  0  0  0  0  0  0
    8.3977   -7.7379   23.8587 N   0  0  0  0  0  0  0  0  0  0  0  0
    7.9841   -6.6587   23.1728 N   0  0  0  0  0  0  0  0  0  0  0  0
    7.2305   -0.6898   20.7785 N   0  0  0  0  0  0  0  0  0  0  0  0
    8.0155   -2.1541   22.4325 N   0  0  0  0  0  0  0  0  0  0  0  0
    8.8030    1.0413   21.0842 O   0  0  0  0  0  0  0  0  0  0  0  0
    6.1158   -2.7517   21.1386 O   0  0  0  0  0  0  0  0  0  0  0  0
    9.9496    0.5589   24.9527 O   0  0  0  0  0  0  0  0  0  0  0  0
   13.4278   -2.1472   21.1115 Cl  0  0  0  0  0  0  0  0  0  0  0  0
    2.5443    3.3508   20.6368 H   0  0  0  0  0  0  0  0  0  0  0  0
    3.5189    2.1137   22.5166 H   0  0  0  0  0  0  0  0  0  0  0  0
    3.3421    2.9744   18.3363 H   0  0  0  0  0  0  0  0  0  0  0  0
    5.3131    0.4893   22.1569 H   0  0  0  0  0  0  0  0  0  0  0  0
   12.5017    0.6065   24.9715 H   0  0  0  0  0  0  0  0  0  0  0  0
   13.9924   -0.5157   23.3773 H   0  0  0  0  0  0  0  0  0  0  0  0
   11.0753   -5.7882   23.5762 H   0  0  0  0  0  0  0  0  0  0  0  0
   10.6031   -2.0252   21.2295 H   0  0  0  0  0  0  0  0  0  0  0  0
   10.2788   -8.2001   24.6288 H   0  0  0  0  0  0  0  0  0  0  0  0
    4.9151    1.7511   16.7471 H   0  0  0  0  0  0  0  0  0  0  0  0
    7.6455   -0.9765   18.1038 H   0  0  0  0  0  0  0  0  0  0  0  0
    7.7144   -0.8754   24.6692 H   0  0  0  0  0  0  0  0  0  0  0  0
    6.8760    0.2356   23.5741 H   0  0  0  0  0  0  0  0  0  0  0  0
    8.8025    1.8559   23.8153 H   0  0  0  0  0  0  0  0  0  0  0  0
    8.1356    1.3957   25.3777 H   0  0  0  0  0  0  0  0  0  0  0  0
    7.9288   -4.6368   21.4549 H   0  0  0  0  0  0  0  0  0  0  0  0
    9.6054   -4.1637   21.6449 H   0  0  0  0  0  0  0  0  0  0  0  0
    7.3400   -3.5742   23.6312 H   0  0  0  0  0  0  0  0  0  0  0  0
    9.0249   -3.0761   23.8712 H   0  0  0  0  0  0  0  0  0  0  0  0
    7.0150   -6.6195   22.8820 H   0  0  0  0  0  0  0  0  0  0  0  0
  1  2  2  0  0  0  0
  1  3  1  0  0  0  0
  2  4  1  0  0  0  0
  3 12  2  0  0  0  0
  4 13  2  0  0  0  0
  5  6  2  0  0  0  0
  5 16  1  0  0  0  0
  6 17  1  0  0  0  0
  7  9  1  0  0  0  0
  7 18  2  0  0  0  0
  8 14  1  0  0  0  0
  8 17  2  0  0  0  0
  9 27  2  0  0  0  0
 10 12  1  0  0  0  0
 10 26  2  0  0  0  0
 11 15  2  0  0  0  0
 11 26  1  0  0  0  0
 12 13  1  0  0  0  0
 13 15  1  0  0  0  0
 14 16  2  0  0  0  0
 14 23  1  6  0  0  0
 15 29  1  0  0  0  0
 16 33  1  0  0  0  0
 17 34  1  0  0  0  0
 18 24  1  0  0  0  0
 18 28  1  0  0  0  0
 19 23  1  1  0  0  0
 19 29  1  0  0  0  0
 19 31  2  0  0  0  0
 20 29  1  0  0  0  0
 20 30  1  0  0  0  0
 20 32  2  0  0  0  0
 21 22  1  0  0  0  0
 21 23  1  1  0  0  0
 22 33  1  0  0  0  0
 23 30  1  6  0  0  0
 24 25  1  0  0  0  0
 25 30  1  0  0  0  0
 27 28  1  0  0  0  0
  1 35  1  0  0  0  0
  2 36  1  0  0  0  0
  3 37  1  0  0  0  0
  4 38  1  0  0  0  0
  5 39  1  0  0  0  0
  6 40  1  0  0  0  0
  7 41  1  0  0  0  0
  8 42  1  0  0  0  0
  9 43  1  0  0  0  0
 10 44  1  0  0  0  0
 11 45  1  0  0  0  0
 21 46  1  0  0  0  0
 21 47  1  0  0  0  0
 22 48  1  0  0  0  0
 22 49  1  0  0  0  0
 24 50  1  0  0  0  0
 24 51  1  0  0  0  0
 25 52  1  0  0  0  0
 25 53  1  0  0  0  0
 28 54  1  0  0  0  0
M  END
> <scaffold>
chromane-5spiro-isoquinoline

> <compound>
VLA-UNK-f702bf1c-1

> <compound_smiles>
c1ccc2c(c1)cncc2N3C(=O)[C@@]4(CCOc5c4cc(cc5)Cl)N(C3=O)CCc6cc[nH]n6

> <enantiomer_smiles>
c1ccc2c(c1)cncc2N3C(=O)[C@@]4(CCOc5c4cc(cc5)Cl)N(C3=O)CCc6cc[nH]n6

> <clash_score>
4.456591416687889

> <docking_score>
3.4028234663852886e+38

> <overlap_score>
1.0

> <MMFF_internal_energy>
87.47025030917857

> <docked_smiles>
c1ccc2c(c1)cncc2N3C(=O)[C@@]4(CCOc5c4cc(cc5)Cl)N(C3=O)CCc6ccn[nH]6

$$$$
EDJ-MED-fd8ed875-5_1
  -OEChem-01042202313D

 51 55  0     1  0  0  0  0  0999 V2000
    3.3444    2.6278   20.4409 C   0  0  0  0  0  0  0  0  0  0  0  0
    3.8974    1.9290   21.5048 C   0  0  0  0  0  0  0  0  0  0  0  0
    3.7877    2.4205   19.1658 C   0  0  0  0  0  0  0  0  0  0  0  0
    4.8986    1.0232   21.2985 C   0  0  0  0  0  0  0  0  0  0  0  0
   12.0781    0.0316   24.1532 C   0  0  0  0  0  0  0  0  0  0  0  0
   12.9147   -0.6032   23.2559 C   0  0  0  0  0  0  0  0  0  0  0  0
   11.0005   -1.4332   22.0435 C   0  0  0  0  0  0  0  0  0  0  0  0
    5.3288    1.2339   17.6062 C   0  0  0  0  0  0  0  0  0  0  0  0
    6.8449   -0.2893   18.3747 C   0  0  0  0  0  0  0  0  0  0  0  0
    4.8238    1.4906   18.9051 C   0  0  0  0  0  0  0  0  0  0  0  0
    5.3995    0.7732   19.9944 C   0  0  0  0  0  0  0  0  0  0  0  0
   10.7056   -0.0626   23.9890 C   0  0  0  0  0  0  0  0  0  0  0  0
   10.1421   -0.7766   22.9242 C   0  0  0  0  0  0  0  0  0  0  0  0
    6.4452   -0.1472   19.6975 C   0  0  0  0  0  0  0  0  0  0  0  0
   12.3697   -1.3298   22.2224 C   0  0  0  0  0  0  0  0  0  0  0  0
    6.9880   -1.9367   21.3575 C   0  0  0  0  0  0  0  0  0  0  0  0
    9.9496    0.5589   24.9527 C   0  0  0  0  0  0  0  0  0  0  0  0
    8.0155   -2.1541   22.4325 C   0  0  0  0  0  0  0  0  0  0  0  0
    8.2504    0.0168   21.4265 C   0  0  0  0  0  0  0  0  0  0  0  0
    7.2619    2.0767   26.0440 C   0  0  0  0  0  0  0  0  0  0  0  0
    7.8737   -0.1194   23.8825 C   0  0  0  0  0  0  0  0  0  0  0  0
    8.6253   -0.7606   22.6923 C   0  0  3  0  0  0  0  0  0  0  0  0
    6.4735    3.4334   27.9809 C   0  0  0  0  0  0  0  0  0  0  0  0
    8.0844    2.2137   24.7882 C   0  0  0  0  0  0  0  0  0  0  0  0
    6.3072    0.3768   17.3417 N   0  0  0  0  0  0  0  0  0  0  0  0
    7.2305   -0.6898   20.7785 N   0  0  0  0  0  0  0  0  0  0  0  0
    8.6625    1.0133   24.4989 N   0  0  0  0  0  0  0  0  0  0  0  0
    7.1985    3.2749   26.7408 N   0  0  0  0  0  0  0  0  0  0  0  0
   10.3273    0.7368   26.1049 O   0  0  0  0  0  0  0  0  0  0  0  0
    8.8042    1.0673   21.1084 O   0  0  0  0  0  0  0  0  0  0  0  0
    6.7223    1.0282   26.3873 O   0  0  0  0  0  0  0  0  0  0  0  0
    8.2524   -3.2614   22.9623 F   0  0  0  0  0  0  0  0  0  0  0  0
   13.4288   -2.1454   21.1111 Cl  0  0  0  0  0  0  0  0  0  0  0  0
    2.5443    3.3508   20.6368 H   0  0  0  0  0  0  0  0  0  0  0  0
    3.5189    2.1137   22.5166 H   0  0  0  0  0  0  0  0  0  0  0  0
    3.3421    2.9744   18.3363 H   0  0  0  0  0  0  0  0  0  0  0  0
    5.3131    0.4893   22.1569 H   0  0  0  0  0  0  0  0  0  0  0  0
   12.5193    0.5917   24.9733 H   0  0  0  0  0  0  0  0  0  0  0  0
   13.9918   -0.5270   23.3849 H   0  0  0  0  0  0  0  0  0  0  0  0
   10.6094   -2.0243   21.2269 H   0  0  0  0  0  0  0  0  0  0  0  0
    4.9151    1.7511   16.7471 H   0  0  0  0  0  0  0  0  0  0  0  0
    7.6455   -0.9765   18.1038 H   0  0  0  0  0  0  0  0  0  0  0  0
    6.2492   -2.5931   21.1085 H   0  0  0  0  0  0  0  0  0  0  0  0
    6.9281    0.3219   23.5671 H   0  0  0  0  0  0  0  0  0  0  0  0
    7.6657   -0.8500   24.6628 H   0  0  0  0  0  0  0  0  0  0  0  0
    5.4386    3.7375   27.7649 H   0  0  0  0  0  0  0  0  0  0  0  0
    6.4684    2.4786   28.5272 H   0  0  0  0  0  0  0  0  0  0  0  0
    6.9616    4.2046   28.5949 H   0  0  0  0  0  0  0  0  0  0  0  0
    7.4390    2.5082   23.9554 H   0  0  0  0  0  0  0  0  0  0  0  0
    8.8583    2.9731   24.9328 H   0  0  0  0  0  0  0  0  0  0  0  0
    7.6861    4.0808   26.3603 H   0  0  0  0  0  0  0  0  0  0  0  0
  1  2  2  0  0  0  0
  1  3  1  0  0  0  0
  2  4  1  0  0  0  0
  3 10  2  0  0  0  0
  4 11  2  0  0  0  0
  5  6  2  0  0  0  0
  5 12  1  0  0  0  0
  6 15  1  0  0  0  0
  7 13  1  0  0  0  0
  7 15  2  0  0  0  0
  8 10  1  0  0  0  0
  8 25  2  0  0  0  0
  9 14  2  0  0  0  0
  9 25  1  0  0  0  0
 10 11  1  0  0  0  0
 11 14  1  0  0  0  0
 12 13  2  0  0  0  0
 12 17  1  0  0  0  0
 13 22  1  0  0  0  0
 14 26  1  0  0  0  0
 15 33  1  0  0  0  0
 16 18  2  0  0  0  0
 16 26  1  0  0  0  0
 17 27  1  0  0  0  0
 17 29  2  0  0  0  0
 18 22  1  0  0  0  0
 18 32  1  0  0  0  0
 19 22  1  0  0  0  0
 19 26  1  0  0  0  0
 19 30  2  0  0  0  0
 20 24  1  0  0  0  0
 20 28  1  0  0  0  0
 20 31  2  0  0  0  0
 21 22  1  0  0  0  0
 21 27  1  0  0  0  0
 23 28  1  0  0  0  0
 24 27  1  0  0  0  0
  1 34  1  0  0  0  0
  2 35  1  0  0  0  0
  3 36  1  0  0  0  0
  4 37  1  0  0  0  0
  5 38  1  0  0  0  0
  6 39  1  0  0  0  0
  7 40  1  0  0  0  0
  8 41  1  0  0  0  0
  9 42  1  0  0  0  0
 16 43  1  0  0  0  0
 21 44  1  0  0  0  0
 21 45  1  0  0  0  0
 23 46  1  0  0  0  0
 23 47  1  0  0  0  0
 23 48  1  0  0  0  0
 24 49  1  0  0  0  0
 24 50  1  0  0  0  0
 28 51  1  0  0  0  0
M  END
> <scaffold>
tetrahydroisoquinoline-5spiro-isoquinoline

> <compound>
EDJ-MED-fd8ed875-5

> <compound_smiles>
CNC(=O)CN1CC2(c3cc(ccc3C1=O)Cl)C(=CN(C2=O)c4cncc5c4cccc5)F

> <enantiomer_smiles>
CNC(=O)CN1C[C@@]2(c3cc(ccc3C1=O)Cl)C(=CN(C2=O)c4cncc5c4cccc5)F

> <clash_score>
0

> <docking_score>
3.4028234663852886e+38

> <overlap_score>
1.0

> <MMFF_internal_energy>
206.4079629558162

> <docked_smiles>
CNC(=O)CN1C[C@@]2(c3cc(ccc3C1=O)Cl)C(=CN(C2=O)c4cncc5c4cccc5)F

$$$$
VLA-UNK-f702bf1c-4_1
  -OEChem-01042202313D

 55 60  0     1  0  0  0  0  0999 V2000
    3.3444    2.6278   20.4409 C   0  0  0  0  0  0  0  0  0  0  0  0
    3.8974    1.9290   21.5048 C   0  0  0  0  0  0  0  0  0  0  0  0
    3.7877    2.4205   19.1658 C   0  0  0  0  0  0  0  0  0  0  0  0
    4.8986    1.0232   21.2985 C   0  0  0  0  0  0  0  0  0  0  0  0
   12.0781    0.0316   24.1532 C   0  0  0  0  0  0  0  0  0  0  0  0
   12.9147   -0.6032   23.2559 C   0  0  0  0  0  0  0  0  0  0  0  0
   11.0005   -1.4332   22.0435 C   0  0  0  0  0  0  0  0  0  0  0  0
    5.3288    1.2339   17.6062 C   0  0  0  0  0  0  0  0  0  0  0  0
    6.8449   -0.2893   18.3747 C   0  0  0  0  0  0  0  0  0  0  0  0
    4.8238    1.4906   18.9051 C   0  0  0  0  0  0  0  0  0  0  0  0
    5.3995    0.7732   19.9944 C   0  0  0  0  0  0  0  0  0  0  0  0
   10.1421   -0.7766   22.9242 C   0  0  0  0  0  0  0  0  0  0  0  0
    6.4452   -0.1472   19.6975 C   0  0  0  0  0  0  0  0  0  0  0  0
   10.7056   -0.0626   23.9890 C   0  0  0  0  0  0  0  0  0  0  0  0
   12.3697   -1.3298   22.2224 C   0  0  0  0  0  0  0  0  0  0  0  0
    7.9967   -6.4797   21.1912 C   0  0  0  0  0  0  0  0  0  0  0  0
    8.2504    0.0168   21.4265 C   0  0  0  0  0  0  0  0  0  0  0  0
    6.9880   -1.9367   21.3575 C   0  0  0  0  0  0  0  0  0  0  0  0
    7.4974   -5.0814   21.4617 C   0  0  0  0  0  0  0  0  0  0  0  0
    7.8737   -0.1194   23.8825 C   0  0  0  0  0  0  0  0  0  0  0  0
    9.3790   -5.5726   22.8671 C   0  0  0  0  0  0  0  0  0  0  0  0
    8.6625    1.0133   24.4989 C   0  0  0  0  0  0  0  0  0  0  0  0
    8.6838   -4.4151   22.1652 C   0  0  2  0  0  0  0  0  0  0  0  0
    8.6253   -0.7606   22.6923 C   0  0  2  0  0  0  0  0  0  0  0  0
    8.2670   -3.3056   23.1149 C   0  0  0  0  0  0  0  0  0  0  0  0
    6.3072    0.3768   17.3417 N   0  0  0  0  0  0  0  0  0  0  0  0
    9.0846   -6.6999   22.0270 N   0  0  0  0  0  0  0  0  0  0  0  0
    7.2305   -0.6898   20.7785 N   0  0  0  0  0  0  0  0  0  0  0  0
    8.0155   -2.1541   22.4325 N   0  0  0  0  0  0  0  0  0  0  0  0
    7.4952   -7.2693   20.4058 O   0  0  0  0  0  0  0  0  0  0  0  0
    8.8030    1.0413   21.0842 O   0  0  0  0  0  0  0  0  0  0  0  0
    6.1158   -2.7517   21.1386 O   0  0  0  0  0  0  0  0  0  0  0  0
    9.9496    0.5589   24.9527 O   0  0  0  0  0  0  0  0  0  0  0  0
   13.4278   -2.1472   21.1115 Cl  0  0  0  0  0  0  0  0  0  0  0  0
    2.5443    3.3508   20.6368 H   0  0  0  0  0  0  0  0  0  0  0  0
    3.5189    2.1137   22.5166 H   0  0  0  0  0  0  0  0  0  0  0  0
    3.3421    2.9744   18.3363 H   0  0  0  0  0  0  0  0  0  0  0  0
    5.3131    0.4893   22.1569 H   0  0  0  0  0  0  0  0  0  0  0  0
   12.5017    0.6065   24.9715 H   0  0  0  0  0  0  0  0  0  0  0  0
   13.9924   -0.5157   23.3773 H   0  0  0  0  0  0  0  0  0  0  0  0
   10.6031   -2.0252   21.2295 H   0  0  0  0  0  0  0  0  0  0  0  0
    4.9151    1.7511   16.7471 H   0  0  0  0  0  0  0  0  0  0  0  0
    7.6455   -0.9765   18.1038 H   0  0  0  0  0  0  0  0  0  0  0  0
    7.2460   -4.5731   20.5271 H   0  0  0  0  0  0  0  0  0  0  0  0
    6.6121   -5.1449   22.1028 H   0  0  0  0  0  0  0  0  0  0  0  0
    7.7144   -0.8754   24.6692 H   0  0  0  0  0  0  0  0  0  0  0  0
    6.8760    0.2356   23.5741 H   0  0  0  0  0  0  0  0  0  0  0  0
   10.4615   -5.4363   22.9362 H   0  0  0  0  0  0  0  0  0  0  0  0
    8.9702   -5.7773   23.8618 H   0  0  0  0  0  0  0  0  0  0  0  0
    8.8025    1.8559   23.8153 H   0  0  0  0  0  0  0  0  0  0  0  0
    8.1356    1.3957   25.3777 H   0  0  0  0  0  0  0  0  0  0  0  0
    9.3566   -3.9927   21.4099 H   0  0  0  0  0  0  0  0  0  0  0  0
    7.3584   -3.6152   23.6520 H   0  0  0  0  0  0  0  0  0  0  0  0
    9.0774   -3.1279   23.8372 H   0  0  0  0  0  0  0  0  0  0  0  0
    9.5842   -7.5824   22.0716 H   0  0  0  0  0  0  0  0  0  0  0  0
  1  2  2  0  0  0  0
  1  3  1  0  0  0  0
  2  4  1  0  0  0  0
  3 10  2  0  0  0  0
  4 11  2  0  0  0  0
  5  6  2  0  0  0  0
  5 14  1  0  0  0  0
  6 15  1  0  0  0  0
  7 12  1  0  0  0  0
  7 15  2  0  0  0  0
  8 10  1  0  0  0  0
  8 26  2  0  0  0  0
  9 13  2  0  0  0  0
  9 26  1  0  0  0  0
 10 11  1  0  0  0  0
 11 13  1  0  0  0  0
 12 14  2  0  0  0  0
 12 24  1  6  0  0  0
 13 28  1  0  0  0  0
 14 33  1  0  0  0  0
 15 34  1  0  0  0  0
 16 19  1  0  0  0  0
 16 27  1  0  0  0  0
 16 30  2  0  0  0  0
 17 24  1  1  0  0  0
 17 28  1  0  0  0  0
 17 31  2  0  0  0  0
 18 28  1  0  0  0  0
 18 29  1  0  0  0  0
 18 32  2  0  0  0  0
 19 23  1  0  0  0  0
 20 22  1  0  0  0  0
 20 24  1  1  0  0  0
 21 23  1  0  0  0  0
 21 27  1  0  0  0  0
 22 33  1  0  0  0  0
 23 25  1  1  0  0  0
 24 29  1  6  0  0  0
 25 29  1  0  0  0  0
  1 35  1  0  0  0  0
  2 36  1  0  0  0  0
  3 37  1  0  0  0  0
  4 38  1  0  0  0  0
  5 39  1  0  0  0  0
  6 40  1  0  0  0  0
  7 41  1  0  0  0  0
  8 42  1  0  0  0  0
  9 43  1  0  0  0  0
 19 44  1  0  0  0  0
 19 45  1  0  0  0  0
 20 46  1  0  0  0  0
 20 47  1  0  0  0  0
 21 48  1  0  0  0  0
 21 49  1  0  0  0  0
 22 50  1  0  0  0  0
 22 51  1  0  0  0  0
 23 52  1  0  0  0  0
 25 53  1  0  0  0  0
 25 54  1  0  0  0  0
 27 55  1  0  0  0  0
M  END
> <scaffold>
chromane-5spiro-isoquinoline

> <compound>
VLA-UNK-f702bf1c-4

> <compound_smiles>
c1ccc2c(c1)cncc2N3C(=O)[C@@]4(CCOc5c4cc(cc5)Cl)N(C3=O)CC6CC(=O)NC6

> <enantiomer_smiles>
c1ccc2c(c1)cncc2N3C(=O)[C@@]4(CCOc5c4cc(cc5)Cl)N(C3=O)C[C@@H]6CC(=O)NC6

> <clash_score>
2.2533790746187883

> <docking_score>
3.4028234663852886e+38

> <overlap_score>
1.0

> <MMFF_internal_energy>
53.95008438554532

> <docked_smiles>
c1ccc2c(c1)cncc2N3C(=O)[C@@]4(CCOc5c4cc(cc5)Cl)N(C3=O)C[C@@H]6CC(=O)NC6

$$$$
EDJ-MED-b6c6ee2b-2_1
  -OEChem-01042202313D

 59 63  0     1  0  0  0  0  0999 V2000
    3.7877    2.4205   19.1658 C   0  0  0  0  0  0  0  0  0  0  0  0
   12.0781    0.0316   24.1532 C   0  0  0  0  0  0  0  0  0  0  0  0
    3.3444    2.6278   20.4409 C   0  0  0  0  0  0  0  0  0  0  0  0
   12.9147   -0.6032   23.2559 C   0  0  0  0  0  0  0  0  0  0  0  0
    4.8986    1.0232   21.2985 C   0  0  0  0  0  0  0  0  0  0  0  0
   11.0005   -1.4332   22.0435 C   0  0  0  0  0  0  0  0  0  0  0  0
    5.3288    1.2339   17.6062 C   0  0  0  0  0  0  0  0  0  0  0  0
    6.8449   -0.2893   18.3747 C   0  0  0  0  0  0  0  0  0  0  0  0
    4.8238    1.4906   18.9051 C   0  0  0  0  0  0  0  0  0  0  0  0
    5.3995    0.7732   19.9944 C   0  0  0  0  0  0  0  0  0  0  0  0
   10.7056   -0.0626   23.9890 C   0  0  0  0  0  0  0  0  0  0  0  0
   10.1421   -0.7766   22.9242 C   0  0  0  0  0  0  0  0  0  0  0  0
    6.4452   -0.1472   19.6975 C   0  0  0  0  0  0  0  0  0  0  0  0
    3.8974    1.9290   21.5048 C   0  0  0  0  0  0  0  0  0  0  0  0
   12.3697   -1.3298   22.2224 C   0  0  0  0  0  0  0  0  0  0  0  0
    8.2504    0.0168   21.4265 C   0  0  0  0  0  0  0  0  0  0  0  0
    6.7850    2.6041   25.0047 C   0  0  0  0  0  0  0  0  0  0  0  0
    9.9496    0.5589   24.9527 C   0  0  0  0  0  0  0  0  0  0  0  0
    8.0155   -2.1541   22.4325 C   0  0  0  0  0  0  0  0  0  0  0  0
    6.9880   -1.9367   21.3575 C   0  0  0  0  0  0  0  0  0  0  0  0
    7.8737   -0.1194   23.8825 C   0  0  0  0  0  0  0  0  0  0  0  0
    8.6253   -0.7606   22.6923 C   0  0  3  0  0  0  0  0  0  0  0  0
    4.9649    4.1271   25.7155 C   0  0  0  0  0  0  0  0  0  0  0  0
    2.3770    3.1162   22.9145 C   0  0  0  0  0  0  0  0  0  0  0  0
    7.8612    1.7144   25.5743 C   0  0  0  0  0  0  0  0  0  0  0  0
    6.3072    0.3768   17.3417 N   0  0  0  0  0  0  0  0  0  0  0  0
    7.2305   -0.6898   20.7785 N   0  0  0  0  0  0  0  0  0  0  0  0
    6.0523    3.2234   26.0062 N   0  0  0  0  0  0  0  0  0  0  0  0
    8.6625    1.0133   24.4989 N   0  3  3  0  0  0  0  0  0  0  0  0
    8.8307    1.0396   21.0789 O   0  0  0  0  0  0  0  0  0  0  0  0
    6.5982    2.7493   23.7996 O   0  0  0  0  0  0  0  0  0  0  0  0
    3.4243    2.1582   22.7713 O   0  0  0  0  0  0  0  0  0  0  0  0
   13.4286   -2.1403   21.1072 Cl  0  0  0  0  0  0  0  0  0  0  0  0
    3.3418    2.9747   18.3367 H   0  0  0  0  0  0  0  0  0  0  0  0
   12.5040    0.5973   24.9741 H   0  0  0  0  0  0  0  0  0  0  0  0
    2.5418    3.3504   20.6305 H   0  0  0  0  0  0  0  0  0  0  0  0
   13.9926   -0.5176   23.3780 H   0  0  0  0  0  0  0  0  0  0  0  0
    5.3175    0.4856   22.1531 H   0  0  0  0  0  0  0  0  0  0  0  0
   10.6057   -2.0168   21.2239 H   0  0  0  0  0  0  0  0  0  0  0  0
    4.9141    1.7513   16.7475 H   0  0  0  0  0  0  0  0  0  0  0  0
    7.6459   -0.9759   18.1036 H   0  0  0  0  0  0  0  0  0  0  0  0
    9.7630   -0.1207   25.8244 H   0  0  0  0  0  0  0  0  0  0  0  0
   10.4585    1.4662   25.3691 H   0  0  0  0  0  0  0  0  0  0  0  0
    7.5159   -2.5477   23.3319 H   0  0  0  0  0  0  0  0  0  0  0  0
    8.7613   -2.9061   22.1409 H   0  0  0  0  0  0  0  0  0  0  0  0
    7.0594   -2.7244   20.5709 H   0  0  0  0  0  0  0  0  0  0  0  0
    5.9531   -1.9957   21.7710 H   0  0  0  0  0  0  0  0  0  0  0  0
    6.8972    0.2930   23.5750 H   0  0  0  0  0  0  0  0  0  0  0  0
    7.6778   -0.8486   24.6901 H   0  0  0  0  0  0  0  0  0  0  0  0
    5.3476    5.1570   25.6619 H   0  0  0  0  0  0  0  0  0  0  0  0
    4.5095    3.8547   24.7520 H   0  0  0  0  0  0  0  0  0  0  0  0
    4.2084    4.0582   26.5111 H   0  0  0  0  0  0  0  0  0  0  0  0
    2.0951    3.1943   23.9674 H   0  0  0  0  0  0  0  0  0  0  0  0
    1.5152    2.8072   22.3176 H   0  0  0  0  0  0  0  0  0  0  0  0
    2.7327    4.0872   22.5619 H   0  0  0  0  0  0  0  0  0  0  0  0
    7.4204    0.9331   26.1997 H   0  0  0  0  0  0  0  0  0  0  0  0
    8.5777    2.3054   26.1514 H   0  0  0  0  0  0  0  0  0  0  0  0
    6.2643    3.0239   26.9796 H   0  0  0  0  0  0  0  0  0  0  0  0
    8.7953    1.7233   23.7550 H   0  0  0  0  0  0  0  0  0  0  0  0
  1  3  2  0  0  0  0
  1  9  1  0  0  0  0
  2  4  2  0  0  0  0
  2 11  1  0  0  0  0
  3 14  1  0  0  0  0
  4 15  1  0  0  0  0
  5 10  1  0  0  0  0
  5 14  2  0  0  0  0
  6 12  1  0  0  0  0
  6 15  2  0  0  0  0
  7  9  2  0  0  0  0
  7 26  1  0  0  0  0
  8 13  1  0  0  0  0
  8 26  2  0  0  0  0
  9 10  1  0  0  0  0
 10 13  2  0  0  0  0
 11 12  2  0  0  0  0
 11 18  1  0  0  0  0
 12 22  1  0  0  0  0
 13 27  1  0  0  0  0
 14 32  1  0  0  0  0
 15 33  1  0  0  0  0
 16 22  1  0  0  0  0
 16 27  1  0  0  0  0
 16 30  2  0  0  0  0
 17 25  1  0  0  0  0
 17 28  1  0  0  0  0
 17 31  2  0  0  0  0
 18 29  1  0  0  0  0
 19 20  1  0  0  0  0
 19 22  1  0  0  0  0
 20 27  1  0  0  0  0
 21 22  1  0  0  0  0
 21 29  1  0  0  0  0
 23 28  1  0  0  0  0
 24 32  1  0  0  0  0
 25 29  1  0  0  0  0
  1 34  1  0  0  0  0
  2 35  1  0  0  0  0
  3 36  1  0  0  0  0
  4 37  1  0  0  0  0
  5 38  1  0  0  0  0
  6 39  1  0  0  0  0
  7 40  1  0  0  0  0
  8 41  1  0  0  0  0
 18 42  1  0  0  0  0
 18 43  1  0  0  0  0
 19 44  1  0  0  0  0
 19 45  1  0  0  0  0
 20 46  1  0  0  0  0
 20 47  1  0  0  0  0
 21 48  1  0  0  0  0
 21 49  1  0  0  0  0
 23 50  1  0  0  0  0
 23 51  1  0  0  0  0
 23 52  1  0  0  0  0
 24 53  1  0  0  0  0
 24 54  1  0  0  0  0
 24 55  1  0  0  0  0
 25 56  1  0  0  0  0
 25 57  1  0  0  0  0
 28 58  1  0  0  0  0
 29 59  1  0  0  0  0
M  CHG  1  29   1
M  END
> <scaffold>
tetrahydroisoquinoline-5spiro-isoquinoline

> <compound>
EDJ-MED-b6c6ee2b-2

> <compound_smiles>
CNC(=O)CN1Cc2ccc(cc2C3(C1)CCN(C3=O)c4cncc5c4cc(cc5)OC)Cl

> <enantiomer_smiles>
CNC(=O)C[N@]1Cc2ccc(cc2[C@@]3(C1)CCN(C3=O)c4cncc5c4cc(cc5)OC)Cl

> <clash_score>
0

> <docking_score>
3.4028234663852886e+38

> <overlap_score>
0.9866001605987549

> <MMFF_internal_energy>
159.48367581837675

> <docked_smiles>
CNC(=O)C[N@H+]1Cc2ccc(cc2[C@@]3(C1)CCN(C3=O)c4cncc5c4cc(cc5)OC)Cl

$$$$
ALP-POS-ecbed2ba-3_1
  -OEChem-01042202313D

 60 65  0     1  0  0  0  0  0999 V2000
    3.3444    2.6278   20.4409 C   0  0  0  0  0  0  0  0  0  0  0  0
    3.8974    1.9290   21.5048 C   0  0  0  0  0  0  0  0  0  0  0  0
    3.7877    2.4205   19.1658 C   0  0  0  0  0  0  0  0  0  0  0  0
    4.8986    1.0232   21.2985 C   0  0  0  0  0  0  0  0  0  0  0  0
   12.0781    0.0316   24.1532 C   0  0  0  0  0  0  0  0  0  0  0  0
   12.9147   -0.6032   23.2559 C   0  0  0  0  0  0  0  0  0  0  0  0
   11.0005   -1.4332   22.0435 C   0  0  0  0  0  0  0  0  0  0  0  0
    5.3288    1.2339   17.6062 C   0  0  0  0  0  0  0  0  0  0  0  0
    6.8449   -0.2893   18.3747 C   0  0  0  0  0  0  0  0  0  0  0  0
    4.8238    1.4906   18.9051 C   0  0  0  0  0  0  0  0  0  0  0  0
    5.3995    0.7732   19.9944 C   0  0  0  0  0  0  0  0  0  0  0  0
   10.7056   -0.0626   23.9890 C   0  0  0  0  0  0  0  0  0  0  0  0
   10.1421   -0.7766   22.9242 C   0  0  0  0  0  0  0  0  0  0  0  0
    6.4452   -0.1472   19.6975 C   0  0  0  0  0  0  0  0  0  0  0  0
   12.3697   -1.3298   22.2224 C   0  0  0  0  0  0  0  0  0  0  0  0
    8.2504    0.0168   21.4265 C   0  0  0  0  0  0  0  0  0  0  0  0
    9.9496    0.5589   24.9527 C   0  0  0  0  0  0  0  0  0  0  0  0
    7.5795    2.5373   28.9869 C   0  0  0  0  0  0  0  0  0  0  0  0
    7.1785    1.1826   29.4969 C   0  0  0  0  0  0  0  0  0  0  0  0
    8.0155   -2.1541   22.4325 C   0  0  0  0  0  0  0  0  0  0  0  0
    6.9880   -1.9367   21.3575 C   0  0  0  0  0  0  0  0  0  0  0  0
    7.8737   -0.1194   23.8825 C   0  0  0  0  0  0  0  0  0  0  0  0
    8.6253   -0.7606   22.6923 C   0  0  3  0  0  0  0  0  0  0  0  0
    6.8379    1.5828   28.0804 C   0  0  0  0  0  0  0  0  0  0  0  0
    5.4005    1.8877   27.7599 C   0  0  0  0  0  0  0  0  0  0  0  0
    7.6088    0.9304   26.9546 C   0  0  0  0  0  0  0  0  0  0  0  0
    6.3072    0.3768   17.3417 N   0  0  0  0  0  0  0  0  0  0  0  0
    7.2305   -0.6898   20.7785 N   0  0  0  0  0  0  0  0  0  0  0  0
    8.6625    1.0133   24.4989 N   0  0  3  0  0  0  0  0  0  0  0  0
    8.8314    1.0394   21.0790 O   0  0  0  0  0  0  0  0  0  0  0  0
    6.4559    2.2241   24.9990 O   0  0  0  0  0  0  0  0  0  0  0  0
    8.6119    3.1278   25.9583 O   0  0  0  0  0  0  0  0  0  0  0  0
    7.7725    2.0180   25.5623 S   0  0  0  0  0  0  0  0  0  0  0  0
   13.4285   -2.1410   21.1076 Cl  0  0  0  0  0  0  0  0  0  0  0  0
    2.5443    3.3508   20.6368 H   0  0  0  0  0  0  0  0  0  0  0  0
    3.5189    2.1137   22.5166 H   0  0  0  0  0  0  0  0  0  0  0  0
    3.3421    2.9744   18.3363 H   0  0  0  0  0  0  0  0  0  0  0  0
    5.3131    0.4893   22.1569 H   0  0  0  0  0  0  0  0  0  0  0  0
   12.5038    0.5986   24.9731 H   0  0  0  0  0  0  0  0  0  0  0  0
   13.9925   -0.5165   23.3773 H   0  0  0  0  0  0  0  0  0  0  0  0
   10.6052   -2.0169   21.2237 H   0  0  0  0  0  0  0  0  0  0  0  0
    4.9151    1.7511   16.7471 H   0  0  0  0  0  0  0  0  0  0  0  0
    7.6455   -0.9765   18.1038 H   0  0  0  0  0  0  0  0  0  0  0  0
    9.7866   -0.1187   25.8304 H   0  0  0  0  0  0  0  0  0  0  0  0
   10.4816    1.4567   25.3600 H   0  0  0  0  0  0  0  0  0  0  0  0
    7.0508    3.3986   29.3777 H   0  0  0  0  0  0  0  0  0  0  0  0
    8.6328    2.7143   28.8042 H   0  0  0  0  0  0  0  0  0  0  0  0
    7.9633    0.4526   29.6559 H   0  0  0  0  0  0  0  0  0  0  0  0
    6.3812    1.1368   30.2294 H   0  0  0  0  0  0  0  0  0  0  0  0
    7.5167   -2.5459   23.3332 H   0  0  0  0  0  0  0  0  0  0  0  0
    8.7666   -2.9029   22.1426 H   0  0  0  0  0  0  0  0  0  0  0  0
    7.0601   -2.7250   20.5715 H   0  0  0  0  0  0  0  0  0  0  0  0
    5.9530   -1.9963   21.7709 H   0  0  0  0  0  0  0  0  0  0  0  0
    6.8882    0.2643   23.5640 H   0  0  0  0  0  0  0  0  0  0  0  0
    7.6667   -0.8657   24.6729 H   0  0  0  0  0  0  0  0  0  0  0  0
    4.9759    1.1244   27.0964 H   0  0  0  0  0  0  0  0  0  0  0  0
    5.3077    2.8595   27.2598 H   0  0  0  0  0  0  0  0  0  0  0  0
    4.7928    1.9179   28.6726 H   0  0  0  0  0  0  0  0  0  0  0  0
    7.0989    0.0296   26.6018 H   0  0  0  0  0  0  0  0  0  0  0  0
    8.6192    0.6630   27.2756 H   0  0  0  0  0  0  0  0  0  0  0  0
  1  2  2  0  0  0  0
  1  3  1  0  0  0  0
  2  4  1  0  0  0  0
  3 10  2  0  0  0  0
  4 11  2  0  0  0  0
  5  6  2  0  0  0  0
  5 12  1  0  0  0  0
  6 15  1  0  0  0  0
  7 13  1  0  0  0  0
  7 15  2  0  0  0  0
  8 10  1  0  0  0  0
  8 27  2  0  0  0  0
  9 14  2  0  0  0  0
  9 27  1  0  0  0  0
 10 11  1  0  0  0  0
 11 14  1  0  0  0  0
 12 13  2  0  0  0  0
 12 17  1  0  0  0  0
 13 23  1  0  0  0  0
 14 28  1  0  0  0  0
 15 34  1  0  0  0  0
 16 23  1  0  0  0  0
 16 28  1  0  0  0  0
 16 30  2  0  0  0  0
 17 29  1  0  0  0  0
 18 19  1  0  0  0  0
 18 24  1  0  0  0  0
 19 24  1  0  0  0  0
 20 21  1  0  0  0  0
 20 23  1  0  0  0  0
 21 28  1  0  0  0  0
 22 23  1  0  0  0  0
 22 29  1  0  0  0  0
 24 25  1  0  0  0  0
 24 26  1  0  0  0  0
 26 33  1  0  0  0  0
 29 33  1  0  0  0  0
 31 33  2  0  0  0  0
 32 33  2  0  0  0  0
  1 35  1  0  0  0  0
  2 36  1  0  0  0  0
  3 37  1  0  0  0  0
  4 38  1  0  0  0  0
  5 39  1  0  0  0  0
  6 40  1  0  0  0  0
  7 41  1  0  0  0  0
  8 42  1  0  0  0  0
  9 43  1  0  0  0  0
 17 44  1  0  0  0  0
 17 45  1  0  0  0  0
 18 46  1  0  0  0  0
 18 47  1  0  0  0  0
 19 48  1  0  0  0  0
 19 49  1  0  0  0  0
 20 50  1  0  0  0  0
 20 51  1  0  0  0  0
 21 52  1  0  0  0  0
 21 53  1  0  0  0  0
 22 54  1  0  0  0  0
 22 55  1  0  0  0  0
 25 56  1  0  0  0  0
 25 57  1  0  0  0  0
 25 58  1  0  0  0  0
 26 59  1  0  0  0  0
 26 60  1  0  0  0  0
M  END
> <scaffold>
tetrahydroisoquinoline-5spiro-isoquinoline

> <compound>
ALP-POS-ecbed2ba-3

> <compound_smiles>
CC1(CC1)CS(=O)(=O)N2Cc3ccc(cc3C4(C2)CCN(C4=O)c5cncc6c5cccc6)Cl

> <enantiomer_smiles>
CC1(CC1)CS(=O)(=O)[N@]2Cc3ccc(cc3[C@@]4(C2)CCN(C4=O)c5cncc6c5cccc6)Cl

> <clash_score>
0

> <docking_score>
3.4028234663852886e+38

> <overlap_score>
0.9719480872154236

> <MMFF_internal_energy>
143.3181333117673

> <docked_smiles>
CC1(CC1)CS(=O)(=O)[N@]2Cc3ccc(cc3[C@@]4(C2)CCN(C4=O)c5cncc6c5cccc6)Cl

$$$$
ALP-POS-ecbed2ba-19_1
  -OEChem-01042202313D

 59 63  0     1  0  0  0  0  0999 V2000
    3.3444    2.6278   20.4409 C   0  0  0  0  0  0  0  0  0  0  0  0
    3.8974    1.9290   21.5048 C   0  0  0  0  0  0  0  0  0  0  0  0
    3.7877    2.4205   19.1658 C   0  0  0  0  0  0  0  0  0  0  0  0
    4.8986    1.0232   21.2985 C   0  0  0  0  0  0  0  0  0  0  0  0
   12.0781    0.0316   24.1532 C   0  0  0  0  0  0  0  0  0  0  0  0
   12.9147   -0.6032   23.2559 C   0  0  0  0  0  0  0  0  0  0  0  0
   11.0005   -1.4332   22.0435 C   0  0  0  0  0  0  0  0  0  0  0  0
    5.3288    1.2339   17.6062 C   0  0  0  0  0  0  0  0  0  0  0  0
    6.8449   -0.2893   18.3747 C   0  0  0  0  0  0  0  0  0  0  0  0
    4.8238    1.4906   18.9051 C   0  0  0  0  0  0  0  0  0  0  0  0
    5.3995    0.7732   19.9944 C   0  0  0  0  0  0  0  0  0  0  0  0
   10.7056   -0.0626   23.9890 C   0  0  0  0  0  0  0  0  0  0  0  0
   10.1421   -0.7766   22.9242 C   0  0  0  0  0  0  0  0  0  0  0  0
    6.4452   -0.1472   19.6975 C   0  0  0  0  0  0  0  0  0  0  0  0
   12.3697   -1.3298   22.2224 C   0  0  0  0  0  0  0  0  0  0  0  0
    8.2504    0.0168   21.4265 C   0  0  0  0  0  0  0  0  0  0  0  0
    9.9496    0.5589   24.9527 C   0  0  0  0  0  0  0  0  0  0  0  0
    8.0155   -2.1541   22.4325 C   0  0  0  0  0  0  0  0  0  0  0  0
    6.9880   -1.9367   21.3575 C   0  0  0  0  0  0  0  0  0  0  0  0
    7.8737   -0.1194   23.8825 C   0  0  0  0  0  0  0  0  0  0  0  0
    8.6253   -0.7606   22.6923 C   0  0  3  0  0  0  0  0  0  0  0  0
    7.8389    1.2506   27.4793 C   0  0  0  0  0  0  0  0  0  0  0  0
    5.7981    1.1158   26.1059 C   0  0  0  0  0  0  0  0  0  0  0  0
    4.6286    1.8746   26.7060 C   0  0  0  0  0  0  0  0  0  0  0  0
    6.3072    0.3768   17.3417 N   0  0  0  0  0  0  0  0  0  0  0  0
    7.2305   -0.6898   20.7785 N   0  0  0  0  0  0  0  0  0  0  0  0
    8.6625    1.0133   24.4989 N   0  0  3  0  0  0  0  0  0  0  0  0
    7.0596    1.8556   26.3685 N   0  0  3  0  0  0  0  0  0  0  0  0
    8.7514    1.0901   21.1243 O   0  0  0  0  0  0  0  0  0  0  0  0
    7.0151    2.8419   23.9724 O   0  0  0  0  0  0  0  0  0  0  0  0
    9.0058    3.2924   25.4394 O   0  0  0  0  0  0  0  0  0  0  0  0
    4.8012    1.9717   28.1141 O   0  0  0  0  0  0  0  0  0  0  0  0
    7.9493    2.4047   24.9925 S   0  0  0  0  0  0  0  0  0  0  0  0
   13.4297   -2.1462   21.1126 Cl  0  0  0  0  0  0  0  0  0  0  0  0
    2.5443    3.3508   20.6368 H   0  0  0  0  0  0  0  0  0  0  0  0
    3.5189    2.1137   22.5166 H   0  0  0  0  0  0  0  0  0  0  0  0
    3.3421    2.9744   18.3363 H   0  0  0  0  0  0  0  0  0  0  0  0
    5.3131    0.4893   22.1569 H   0  0  0  0  0  0  0  0  0  0  0  0
   12.5046    0.5852   24.9818 H   0  0  0  0  0  0  0  0  0  0  0  0
   13.9930   -0.5302   23.3869 H   0  0  0  0  0  0  0  0  0  0  0  0
   10.6139   -2.0326   21.2341 H   0  0  0  0  0  0  0  0  0  0  0  0
    4.9151    1.7511   16.7471 H   0  0  0  0  0  0  0  0  0  0  0  0
    7.6455   -0.9765   18.1038 H   0  0  0  0  0  0  0  0  0  0  0  0
    9.7590   -0.1307   25.8193 H   0  0  0  0  0  0  0  0  0  0  0  0
   10.4971    1.4368   25.3930 H   0  0  0  0  0  0  0  0  0  0  0  0
    7.5139   -2.5724   23.3172 H   0  0  0  0  0  0  0  0  0  0  0  0
    8.7710   -2.8991   22.1377 H   0  0  0  0  0  0  0  0  0  0  0  0
    7.0576   -2.7256   20.5712 H   0  0  0  0  0  0  0  0  0  0  0  0
    5.9526   -1.9955   21.7714 H   0  0  0  0  0  0  0  0  0  0  0  0
    6.8959    0.2848   23.5662 H   0  0  0  0  0  0  0  0  0  0  0  0
    7.6721   -0.8632   24.6716 H   0  0  0  0  0  0  0  0  0  0  0  0
    8.7612    1.8287   27.6381 H   0  0  0  0  0  0  0  0  0  0  0  0
    7.2359    1.2626   28.3992 H   0  0  0  0  0  0  0  0  0  0  0  0
    8.0966    0.2123   27.2233 H   0  0  0  0  0  0  0  0  0  0  0  0
    5.8891    0.1165   26.5432 H   0  0  0  0  0  0  0  0  0  0  0  0
    5.6762    1.0230   25.0225 H   0  0  0  0  0  0  0  0  0  0  0  0
    3.6952    1.3354   26.5165 H   0  0  0  0  0  0  0  0  0  0  0  0
    4.5481    2.8844   26.2906 H   0  0  0  0  0  0  0  0  0  0  0  0
    4.0361    2.4611   28.4564 H   0  0  0  0  0  0  0  0  0  0  0  0
  1  2  2  0  0  0  0
  1  3  1  0  0  0  0
  2  4  1  0  0  0  0
  3 10  2  0  0  0  0
  4 11  2  0  0  0  0
  5  6  2  0  0  0  0
  5 12  1  0  0  0  0
  6 15  1  0  0  0  0
  7 13  1  0  0  0  0
  7 15  2  0  0  0  0
  8 10  1  0  0  0  0
  8 25  2  0  0  0  0
  9 14  2  0  0  0  0
  9 25  1  0  0  0  0
 10 11  1  0  0  0  0
 11 14  1  0  0  0  0
 12 13  2  0  0  0  0
 12 17  1  0  0  0  0
 13 21  1  0  0  0  0
 14 26  1  0  0  0  0
 15 34  1  0  0  0  0
 16 21  1  0  0  0  0
 16 26  1  0  0  0  0
 16 29  2  0  0  0  0
 17 27  1  0  0  0  0
 18 19  1  0  0  0  0
 18 21  1  0  0  0  0
 19 26  1  0  0  0  0
 20 21  1  0  0  0  0
 20 27  1  0  0  0  0
 22 28  1  0  0  0  0
 23 24  1  0  0  0  0
 23 28  1  0  0  0  0
 24 32  1  0  0  0  0
 27 33  1  0  0  0  0
 28 33  1  0  0  0  0
 30 33  2  0  0  0  0
 31 33  2  0  0  0  0
  1 35  1  0  0  0  0
  2 36  1  0  0  0  0
  3 37  1  0  0  0  0
  4 38  1  0  0  0  0
  5 39  1  0  0  0  0
  6 40  1  0  0  0  0
  7 41  1  0  0  0  0
  8 42  1  0  0  0  0
  9 43  1  0  0  0  0
 17 44  1  0  0  0  0
 17 45  1  0  0  0  0
 18 46  1  0  0  0  0
 18 47  1  0  0  0  0
 19 48  1  0  0  0  0
 19 49  1  0  0  0  0
 20 50  1  0  0  0  0
 20 51  1  0  0  0  0
 22 52  1  0  0  0  0
 22 53  1  0  0  0  0
 22 54  1  0  0  0  0
 23 55  1  0  0  0  0
 23 56  1  0  0  0  0
 24 57  1  0  0  0  0
 24 58  1  0  0  0  0
 32 59  1  0  0  0  0
M  END
> <scaffold>
tetrahydroisoquinoline-5spiro-isoquinoline

> <compound>
ALP-POS-ecbed2ba-19

> <compound_smiles>
CN(CCO)S(=O)(=O)N1Cc2ccc(cc2C3(C1)CCN(C3=O)c4cncc5c4cccc5)Cl

> <enantiomer_smiles>
C[N@@](CCO)S(=O)(=O)[N@]1Cc2ccc(cc2[C@@]3(C1)CCN(C3=O)c4cncc5c4cccc5)Cl

> <clash_score>
0

> <docking_score>
3.4028234663852886e+38

> <overlap_score>
0.973975419998169

> <MMFF_internal_energy>
-4.2257611098162435

> <docked_smiles>
C[N@](CCO)S(=O)(=O)[N@@]1Cc2ccc(cc2[C@@]3(C1)CCN(C3=O)c4cncc5c4cccc5)Cl

$$$$
MAT-POS-50a80394-5_1
  -OEChem-01042202313D

 61 65  0     1  0  0  0  0  0999 V2000
    3.3444    2.6278   20.4409 C   0  0  0  0  0  0  0  0  0  0  0  0
    3.8974    1.9290   21.5048 C   0  0  0  0  0  0  0  0  0  0  0  0
    3.7877    2.4205   19.1658 C   0  0  0  0  0  0  0  0  0  0  0  0
    4.8986    1.0232   21.2985 C   0  0  0  0  0  0  0  0  0  0  0  0
   12.0781    0.0316   24.1532 C   0  0  0  0  0  0  0  0  0  0  0  0
   12.9147   -0.6032   23.2559 C   0  0  0  0  0  0  0  0  0  0  0  0
   11.0005   -1.4332   22.0435 C   0  0  0  0  0  0  0  0  0  0  0  0
    5.3288    1.2339   17.6062 C   0  0  0  0  0  0  0  0  0  0  0  0
    6.8449   -0.2893   18.3747 C   0  0  0  0  0  0  0  0  0  0  0  0
    4.8238    1.4906   18.9051 C   0  0  0  0  0  0  0  0  0  0  0  0
    5.3995    0.7732   19.9944 C   0  0  0  0  0  0  0  0  0  0  0  0
   10.7056   -0.0626   23.9890 C   0  0  0  0  0  0  0  0  0  0  0  0
   10.1421   -0.7766   22.9242 C   0  0  0  0  0  0  0  0  0  0  0  0
    6.4452   -0.1472   19.6975 C   0  0  0  0  0  0  0  0  0  0  0  0
   12.3697   -1.3298   22.2224 C   0  0  0  0  0  0  0  0  0  0  0  0
    8.2504    0.0168   21.4265 C   0  0  0  0  0  0  0  0  0  0  0  0
    6.8057    2.5964   24.9607 C   0  0  0  0  0  0  0  0  0  0  0  0
    9.9496    0.5589   24.9527 C   0  0  0  0  0  0  0  0  0  0  0  0
    6.9880   -1.9367   21.3575 C   0  0  0  0  0  0  0  0  0  0  0  0
    7.8737   -0.1194   23.8825 C   0  0  0  0  0  0  0  0  0  0  0  0
    8.0155   -2.1541   22.4325 C   0  0  2  0  0  0  0  0  0  0  0  0
    8.6253   -0.7606   22.6923 C   0  0  3  0  0  0  0  0  0  0  0  0
    8.2644   -4.5723   21.7915 C   0  0  0  0  0  0  0  0  0  0  0  0
    4.5259    3.4642   25.3927 C   0  0  0  0  0  0  0  0  0  0  0  0
    7.8612    1.7113   25.5747 C   0  0  0  0  0  0  0  0  0  0  0  0
    8.9809   -3.2908   22.0765 C   0  0  0  0  0  0  0  0  0  0  0  0
    6.3072    0.3768   17.3417 N   0  0  0  0  0  0  0  0  0  0  0  0
    7.2305   -0.6898   20.7785 N   0  0  0  0  0  0  0  0  0  0  0  0
    5.6770    2.6755   25.7625 N   0  0  0  0  0  0  0  0  0  0  0  0
    8.6625    1.0133   24.4989 N   0  3  3  0  0  0  0  0  0  0  0  0
    8.8288    1.0390   21.0729 O   0  0  0  0  0  0  0  0  0  0  0  0
    6.9488    3.1682   23.8833 O   0  0  0  0  0  0  0  0  0  0  0  0
   13.4292   -2.1458   21.1116 Cl  0  0  0  0  0  0  0  0  0  0  0  0
    2.5443    3.3508   20.6368 H   0  0  0  0  0  0  0  0  0  0  0  0
    3.5189    2.1137   22.5166 H   0  0  0  0  0  0  0  0  0  0  0  0
    3.3421    2.9744   18.3363 H   0  0  0  0  0  0  0  0  0  0  0  0
    5.3131    0.4893   22.1569 H   0  0  0  0  0  0  0  0  0  0  0  0
   12.5044    0.5937   24.9756 H   0  0  0  0  0  0  0  0  0  0  0  0
   13.9928   -0.5224   23.3815 H   0  0  0  0  0  0  0  0  0  0  0  0
   10.6078   -2.0227   21.2282 H   0  0  0  0  0  0  0  0  0  0  0  0
    4.9151    1.7511   16.7471 H   0  0  0  0  0  0  0  0  0  0  0  0
    7.6455   -0.9765   18.1038 H   0  0  0  0  0  0  0  0  0  0  0  0
    9.7643   -0.1183   25.8279 H   0  0  0  0  0  0  0  0  0  0  0  0
   10.4585    1.4673   25.3688 H   0  0  0  0  0  0  0  0  0  0  0  0
    7.0385   -2.7203   20.5611 H   0  0  0  0  0  0  0  0  0  0  0  0
    5.9508   -1.9854   21.7738 H   0  0  0  0  0  0  0  0  0  0  0  0
    6.8983    0.2871   23.5839 H   0  0  0  0  0  0  0  0  0  0  0  0
    7.6938   -0.8432   24.6916 H   0  0  0  0  0  0  0  0  0  0  0  0
    7.4749   -2.5001   23.3350 H   0  0  0  0  0  0  0  0  0  0  0  0
    7.6778   -4.8725   22.6677 H   0  0  0  0  0  0  0  0  0  0  0  0
    8.9757   -5.3745   21.5681 H   0  0  0  0  0  0  0  0  0  0  0  0
    7.5773   -4.4541   20.9469 H   0  0  0  0  0  0  0  0  0  0  0  0
    4.6249    4.4768   25.8109 H   0  0  0  0  0  0  0  0  0  0  0  0
    4.4602    3.5251   24.2964 H   0  0  0  0  0  0  0  0  0  0  0  0
    3.6151    2.9915   25.7889 H   0  0  0  0  0  0  0  0  0  0  0  0
    7.3983    0.9299   26.1838 H   0  0  0  0  0  0  0  0  0  0  0  0
    8.5522    2.3059   26.1787 H   0  0  0  0  0  0  0  0  0  0  0  0
    9.5641   -2.9977   21.1973 H   0  0  0  0  0  0  0  0  0  0  0  0
    9.6847   -3.4442   22.9011 H   0  0  0  0  0  0  0  0  0  0  0  0
    5.6391    2.1470   26.6294 H   0  0  0  0  0  0  0  0  0  0  0  0
    8.8006    1.7249   23.7624 H   0  0  0  0  0  0  0  0  0  0  0  0
  1  2  2  0  0  0  0
  1  3  1  0  0  0  0
  2  4  1  0  0  0  0
  3 10  2  0  0  0  0
  4 11  2  0  0  0  0
  5  6  2  0  0  0  0
  5 12  1  0  0  0  0
  6 15  1  0  0  0  0
  7 13  1  0  0  0  0
  7 15  2  0  0  0  0
  8 10  1  0  0  0  0
  8 27  2  0  0  0  0
  9 14  2  0  0  0  0
  9 27  1  0  0  0  0
 10 11  1  0  0  0  0
 11 14  1  0  0  0  0
 12 13  2  0  0  0  0
 12 18  1  0  0  0  0
 13 22  1  0  0  0  0
 14 28  1  0  0  0  0
 15 33  1  0  0  0  0
 16 22  1  0  0  0  0
 16 28  1  0  0  0  0
 16 31  2  0  0  0  0
 17 25  1  0  0  0  0
 17 29  1  0  0  0  0
 17 32  2  0  0  0  0
 18 30  1  0  0  0  0
 19 21  1  0  0  0  0
 19 28  1  0  0  0  0
 20 22  1  0  0  0  0
 20 30  1  0  0  0  0
 21 22  1  0  0  0  0
 21 26  1  1  0  0  0
 23 26  1  0  0  0  0
 24 29  1  0  0  0  0
 25 30  1  0  0  0  0
  1 34  1  0  0  0  0
  2 35  1  0  0  0  0
  3 36  1  0  0  0  0
  4 37  1  0  0  0  0
  5 38  1  0  0  0  0
  6 39  1  0  0  0  0
  7 40  1  0  0  0  0
  8 41  1  0  0  0  0
  9 42  1  0  0  0  0
 18 43  1  0  0  0  0
 18 44  1  0  0  0  0
 19 45  1  0  0  0  0
 19 46  1  0  0  0  0
 20 47  1  0  0  0  0
 20 48  1  0  0  0  0
 21 49  1  0  0  0  0
 23 50  1  0  0  0  0
 23 51  1  0  0  0  0
 23 52  1  0  0  0  0
 24 53  1  0  0  0  0
 24 54  1  0  0  0  0
 24 55  1  0  0  0  0
 25 56  1  0  0  0  0
 25 57  1  0  0  0  0
 26 58  1  0  0  0  0
 26 59  1  0  0  0  0
 29 60  1  0  0  0  0
 30 61  1  0  0  0  0
M  CHG  1  30   1
M  END
> <scaffold>
tetrahydroisoquinoline-5spiro-isoquinoline

> <compound>
MAT-POS-50a80394-5

> <compound_smiles>
CCC1CN(C(=O)C12CN(Cc3c2cc(cc3)Cl)CC(=O)NC)c4cncc5c4cccc5

> <enantiomer_smiles>
CC[C@@H]1CN(C(=O)[C@]12C[N@](Cc3c2cc(cc3)Cl)CC(=O)NC)c4cncc5c4cccc5

> <clash_score>
0.6071250466675543

> <docking_score>
3.4028234663852886e+38

> <overlap_score>
0.9857981204986572

> <MMFF_internal_energy>
191.84272137745856

> <docked_smiles>
CC[C@@H]1CN(C(=O)[C@]12C[N@H+](Cc3c2cc(cc3)Cl)CC(=O)NC)c4cncc5c4cccc5

$$$$
EDJ-MED-976a33d5-1_1
  -OEChem-01042202313D

 57 62  0     1  0  0  0  0  0999 V2000
    3.3444    2.6278   20.4409 C   0  0  0  0  0  0  0  0  0  0  0  0
    3.8974    1.9290   21.5048 C   0  0  0  0  0  0  0  0  0  0  0  0
    3.7877    2.4205   19.1658 C   0  0  0  0  0  0  0  0  0  0  0  0
    4.8986    1.0232   21.2985 C   0  0  0  0  0  0  0  0  0  0  0  0
   12.0781    0.0316   24.1532 C   0  0  0  0  0  0  0  0  0  0  0  0
   12.9147   -0.6032   23.2559 C   0  0  0  0  0  0  0  0  0  0  0  0
   11.0005   -1.4332   22.0435 C   0  0  0  0  0  0  0  0  0  0  0  0
    5.3288    1.2339   17.6062 C   0  0  0  0  0  0  0  0  0  0  0  0
    6.8449   -0.2893   18.3747 C   0  0  0  0  0  0  0  0  0  0  0  0
    4.8238    1.4906   18.9051 C   0  0  0  0  0  0  0  0  0  0  0  0
    5.3995    0.7732   19.9944 C   0  0  0  0  0  0  0  0  0  0  0  0
   10.7056   -0.0626   23.9890 C   0  0  0  0  0  0  0  0  0  0  0  0
   10.1421   -0.7766   22.9242 C   0  0  0  0  0  0  0  0  0  0  0  0
    6.4452   -0.1472   19.6975 C   0  0  0  0  0  0  0  0  0  0  0  0
   12.3697   -1.3298   22.2224 C   0  0  0  0  0  0  0  0  0  0  0  0
    9.9496    0.5589   24.9527 C   0  0  0  0  0  0  0  0  0  0  0  0
    8.2504    0.0168   21.4265 C   0  0  0  0  0  0  0  0  0  0  0  0
    7.2743    2.2339   25.9911 C   0  0  0  0  0  0  0  0  0  0  0  0
    7.6484    3.1063   23.6248 C   0  0  0  0  0  0  0  0  0  0  0  0
    8.8572    3.4809   24.4312 C   0  0  0  0  0  0  0  0  0  0  0  0
    8.0155   -2.1541   22.4325 C   0  0  0  0  0  0  0  0  0  0  0  0
    6.9880   -1.9367   21.3575 C   0  0  0  0  0  0  0  0  0  0  0  0
    7.8737   -0.1194   23.8825 C   0  0  0  0  0  0  0  0  0  0  0  0
    8.6253   -0.7606   22.6923 C   0  0  3  0  0  0  0  0  0  0  0  0
    8.0937    2.2235   24.7641 C   0  0  0  0  0  0  0  0  0  0  0  0
    7.3837    1.9520   28.4592 C   0  0  0  0  0  0  0  0  0  0  0  0
    6.3072    0.3768   17.3417 N   0  0  0  0  0  0  0  0  0  0  0  0
    7.2305   -0.6898   20.7785 N   0  0  0  0  0  0  0  0  0  0  0  0
    8.6625    1.0133   24.4989 N   0  0  0  0  0  0  0  0  0  0  0  0
    7.9894    1.9860   27.1473 N   0  0  0  0  0  0  0  0  0  0  0  0
   10.3233    0.7301   26.1084 O   0  0  0  0  0  0  0  0  0  0  0  0
    8.8205    1.0412   21.0776 O   0  0  0  0  0  0  0  0  0  0  0  0
    6.0711    2.4522   25.9123 O   0  0  0  0  0  0  0  0  0  0  0  0
   13.4287   -2.1467   21.1125 Cl  0  0  0  0  0  0  0  0  0  0  0  0
    2.5443    3.3508   20.6368 H   0  0  0  0  0  0  0  0  0  0  0  0
    3.5189    2.1137   22.5166 H   0  0  0  0  0  0  0  0  0  0  0  0
    3.3421    2.9744   18.3363 H   0  0  0  0  0  0  0  0  0  0  0  0
    5.3131    0.4893   22.1569 H   0  0  0  0  0  0  0  0  0  0  0  0
   12.5188    0.5959   24.9712 H   0  0  0  0  0  0  0  0  0  0  0  0
   13.9920   -0.5225   23.3819 H   0  0  0  0  0  0  0  0  0  0  0  0
   10.6143   -2.0253   21.2265 H   0  0  0  0  0  0  0  0  0  0  0  0
    4.9151    1.7511   16.7471 H   0  0  0  0  0  0  0  0  0  0  0  0
    7.6455   -0.9765   18.1038 H   0  0  0  0  0  0  0  0  0  0  0  0
    6.7552    3.7072   23.7499 H   0  0  0  0  0  0  0  0  0  0  0  0
    7.8098    2.7620   22.6100 H   0  0  0  0  0  0  0  0  0  0  0  0
    9.8268    3.3863   23.9564 H   0  0  0  0  0  0  0  0  0  0  0  0
    8.7731    4.3325   25.0962 H   0  0  0  0  0  0  0  0  0  0  0  0
    7.5125   -2.5270   23.3387 H   0  0  0  0  0  0  0  0  0  0  0  0
    8.7589   -2.9107   22.1432 H   0  0  0  0  0  0  0  0  0  0  0  0
    7.0600   -2.7259   20.5720 H   0  0  0  0  0  0  0  0  0  0  0  0
    5.9527   -1.9961   21.7709 H   0  0  0  0  0  0  0  0  0  0  0  0
    6.9276    0.3247   23.5633 H   0  0  0  0  0  0  0  0  0  0  0  0
    7.6527   -0.8545   24.6567 H   0  0  0  0  0  0  0  0  0  0  0  0
    7.4071    2.9593   28.9006 H   0  0  0  0  0  0  0  0  0  0  0  0
    6.3405    1.6140   28.3726 H   0  0  0  0  0  0  0  0  0  0  0  0
    7.9423    1.2567   29.1029 H   0  0  0  0  0  0  0  0  0  0  0  0
    8.9884    1.8197   27.0716 H   0  0  0  0  0  0  0  0  0  0  0  0
  1  2  2  0  0  0  0
  1  3  1  0  0  0  0
  2  4  1  0  0  0  0
  3 10  2  0  0  0  0
  4 11  2  0  0  0  0
  5  6  2  0  0  0  0
  5 12  1  0  0  0  0
  6 15  1  0  0  0  0
  7 13  1  0  0  0  0
  7 15  2  0  0  0  0
  8 10  1  0  0  0  0
  8 27  2  0  0  0  0
  9 14  2  0  0  0  0
  9 27  1  0  0  0  0
 10 11  1  0  0  0  0
 11 14  1  0  0  0  0
 12 13  2  0  0  0  0
 12 16  1  0  0  0  0
 13 24  1  0  0  0  0
 14 28  1  0  0  0  0
 15 34  1  0  0  0  0
 16 29  1  0  0  0  0
 16 31  2  0  0  0  0
 17 24  1  0  0  0  0
 17 28  1  0  0  0  0
 17 32  2  0  0  0  0
 18 25  1  0  0  0  0
 18 30  1  0  0  0  0
 18 33  2  0  0  0  0
 19 20  1  0  0  0  0
 19 25  1  0  0  0  0
 20 25  1  0  0  0  0
 21 22  1  0  0  0  0
 21 24  1  0  0  0  0
 22 28  1  0  0  0  0
 23 24  1  0  0  0  0
 23 29  1  0  0  0  0
 25 29  1  0  0  0  0
 26 30  1  0  0  0  0
  1 35  1  0  0  0  0
  2 36  1  0  0  0  0
  3 37  1  0  0  0  0
  4 38  1  0  0  0  0
  5 39  1  0  0  0  0
  6 40  1  0  0  0  0
  7 41  1  0  0  0  0
  8 42  1  0  0  0  0
  9 43  1  0  0  0  0
 19 44  1  0  0  0  0
 19 45  1  0  0  0  0
 20 46  1  0  0  0  0
 20 47  1  0  0  0  0
 21 48  1  0  0  0  0
 21 49  1  0  0  0  0
 22 50  1  0  0  0  0
 22 51  1  0  0  0  0
 23 52  1  0  0  0  0
 23 53  1  0  0  0  0
 26 54  1  0  0  0  0
 26 55  1  0  0  0  0
 26 56  1  0  0  0  0
 30 57  1  0  0  0  0
M  END
> <scaffold>
tetrahydroisoquinoline-5spiro-isoquinoline

> <compound>
EDJ-MED-976a33d5-1

> <compound_smiles>
CNC(=O)C1(CC1)N2CC3(CCN(C3=O)c4cncc5c4cccc5)c6cc(ccc6C2=O)Cl

> <enantiomer_smiles>
CNC(=O)C1(CC1)N2C[C@]3(CCN(C3=O)c4cncc5c4cccc5)c6cc(ccc6C2=O)Cl

> <clash_score>
0

> <docking_score>
3.4028234663852886e+38

> <overlap_score>
0.9885486960411072

> <MMFF_internal_energy>
145.3969363083449

> <docked_smiles>
CNC(=O)C1(CC1)N2C[C@]3(CCN(C3=O)c4cncc5c4cccc5)c6cc(ccc6C2=O)Cl

$$$$
VLA-UNK-f702bf1c-6_1
  -OEChem-01042202313D

 60 65  0     1  0  0  0  0  0999 V2000
    3.3444    2.6278   20.4409 C   0  0  0  0  0  0  0  0  0  0  0  0
    3.8974    1.9290   21.5048 C   0  0  0  0  0  0  0  0  0  0  0  0
    3.7877    2.4205   19.1658 C   0  0  0  0  0  0  0  0  0  0  0  0
    4.8986    1.0232   21.2985 C   0  0  0  0  0  0  0  0  0  0  0  0
   12.0781    0.0316   24.1532 C   0  0  0  0  0  0  0  0  0  0  0  0
   12.9147   -0.6032   23.2559 C   0  0  0  0  0  0  0  0  0  0  0  0
   11.0005   -1.4332   22.0435 C   0  0  0  0  0  0  0  0  0  0  0  0
    5.3288    1.2339   17.6062 C   0  0  0  0  0  0  0  0  0  0  0  0
    6.8449   -0.2893   18.3747 C   0  0  0  0  0  0  0  0  0  0  0  0
    4.8238    1.4906   18.9051 C   0  0  0  0  0  0  0  0  0  0  0  0
    5.3995    0.7732   19.9944 C   0  0  0  0  0  0  0  0  0  0  0  0
   10.1421   -0.7766   22.9242 C   0  0  0  0  0  0  0  0  0  0  0  0
    6.4452   -0.1472   19.6975 C   0  0  0  0  0  0  0  0  0  0  0  0
   10.7056   -0.0626   23.9890 C   0  0  0  0  0  0  0  0  0  0  0  0
   12.3697   -1.3298   22.2224 C   0  0  0  0  0  0  0  0  0  0  0  0
    8.2504    0.0168   21.4265 C   0  0  0  0  0  0  0  0  0  0  0  0
    6.9880   -1.9367   21.3575 C   0  0  0  0  0  0  0  0  0  0  0  0
   10.1996   -6.6098   21.0170 C   0  0  0  0  0  0  0  0  0  0  0  0
   10.6322   -6.3106   22.4489 C   0  0  0  0  0  0  0  0  0  0  0  0
    9.9104   -5.3298   20.2392 C   0  0  0  0  0  0  0  0  0  0  0  0
    9.6138   -5.4333   23.1734 C   0  0  0  0  0  0  0  0  0  0  0  0
    8.8909   -4.4507   20.9600 C   0  0  0  0  0  0  0  0  0  0  0  0
    7.8737   -0.1194   23.8825 C   0  0  0  0  0  0  0  0  0  0  0  0
    8.6625    1.0133   24.4989 C   0  0  0  0  0  0  0  0  0  0  0  0
    9.3268   -4.1402   22.3982 C   0  0  0  0  0  0  0  0  0  0  0  0
    8.6253   -0.7606   22.6923 C   0  0  2  0  0  0  0  0  0  0  0  0
    8.2670   -3.3056   23.1149 C   0  0  0  0  0  0  0  0  0  0  0  0
    6.3072    0.3768   17.3417 N   0  0  0  0  0  0  0  0  0  0  0  0
    7.2305   -0.6898   20.7785 N   0  0  0  0  0  0  0  0  0  0  0  0
    8.0155   -2.1541   22.4325 N   0  0  0  0  0  0  0  0  0  0  0  0
    8.8030    1.0413   21.0842 O   0  0  0  0  0  0  0  0  0  0  0  0
    6.1158   -2.7517   21.1386 O   0  0  0  0  0  0  0  0  0  0  0  0
    9.9496    0.5589   24.9527 O   0  0  0  0  0  0  0  0  0  0  0  0
   13.4278   -2.1472   21.1115 Cl  0  0  0  0  0  0  0  0  0  0  0  0
    2.5443    3.3508   20.6368 H   0  0  0  0  0  0  0  0  0  0  0  0
    3.5189    2.1137   22.5166 H   0  0  0  0  0  0  0  0  0  0  0  0
    3.3421    2.9744   18.3363 H   0  0  0  0  0  0  0  0  0  0  0  0
    5.3131    0.4893   22.1569 H   0  0  0  0  0  0  0  0  0  0  0  0
   12.5017    0.6065   24.9715 H   0  0  0  0  0  0  0  0  0  0  0  0
   13.9924   -0.5157   23.3773 H   0  0  0  0  0  0  0  0  0  0  0  0
   10.6031   -2.0252   21.2295 H   0  0  0  0  0  0  0  0  0  0  0  0
    4.9151    1.7511   16.7471 H   0  0  0  0  0  0  0  0  0  0  0  0
    7.6455   -0.9765   18.1038 H   0  0  0  0  0  0  0  0  0  0  0  0
   10.9830   -7.1820   20.5072 H   0  0  0  0  0  0  0  0  0  0  0  0
    9.3008   -7.2385   21.0315 H   0  0  0  0  0  0  0  0  0  0  0  0
   10.7656   -7.2503   22.9969 H   0  0  0  0  0  0  0  0  0  0  0  0
   11.6062   -5.8060   22.4386 H   0  0  0  0  0  0  0  0  0  0  0  0
   10.8424   -4.7683   20.1001 H   0  0  0  0  0  0  0  0  0  0  0  0
    9.5383   -5.5827   19.2398 H   0  0  0  0  0  0  0  0  0  0  0  0
    8.6840   -6.0001   23.3114 H   0  0  0  0  0  0  0  0  0  0  0  0
    9.9903   -5.1936   24.1750 H   0  0  0  0  0  0  0  0  0  0  0  0
    8.7574   -3.5176   20.3995 H   0  0  0  0  0  0  0  0  0  0  0  0
    7.9180   -4.9589   20.9661 H   0  0  0  0  0  0  0  0  0  0  0  0
    7.7144   -0.8754   24.6692 H   0  0  0  0  0  0  0  0  0  0  0  0
    6.8760    0.2356   23.5741 H   0  0  0  0  0  0  0  0  0  0  0  0
    8.8025    1.8559   23.8153 H   0  0  0  0  0  0  0  0  0  0  0  0
    8.1356    1.3957   25.3777 H   0  0  0  0  0  0  0  0  0  0  0  0
   10.2426   -3.5399   22.3654 H   0  0  0  0  0  0  0  0  0  0  0  0
    7.3396   -3.8921   23.1917 H   0  0  0  0  0  0  0  0  0  0  0  0
    8.6279   -3.0563   24.1237 H   0  0  0  0  0  0  0  0  0  0  0  0
  1  2  2  0  0  0  0
  1  3  1  0  0  0  0
  2  4  1  0  0  0  0
  3 10  2  0  0  0  0
  4 11  2  0  0  0  0
  5  6  2  0  0  0  0
  5 14  1  0  0  0  0
  6 15  1  0  0  0  0
  7 12  1  0  0  0  0
  7 15  2  0  0  0  0
  8 10  1  0  0  0  0
  8 28  2  0  0  0  0
  9 13  2  0  0  0  0
  9 28  1  0  0  0  0
 10 11  1  0  0  0  0
 11 13  1  0  0  0  0
 12 14  2  0  0  0  0
 12 26  1  6  0  0  0
 13 29  1  0  0  0  0
 14 33  1  0  0  0  0
 15 34  1  0  0  0  0
 16 26  1  1  0  0  0
 16 29  1  0  0  0  0
 16 31  2  0  0  0  0
 17 29  1  0  0  0  0
 17 30  1  0  0  0  0
 17 32  2  0  0  0  0
 18 19  1  0  0  0  0
 18 20  1  0  0  0  0
 19 21  1  0  0  0  0
 20 22  1  0  0  0  0
 21 25  1  0  0  0  0
 22 25  1  0  0  0  0
 23 24  1  0  0  0  0
 23 26  1  1  0  0  0
 24 33  1  0  0  0  0
 25 27  1  0  0  0  0
 26 30  1  6  0  0  0
 27 30  1  0  0  0  0
  1 35  1  0  0  0  0
  2 36  1  0  0  0  0
  3 37  1  0  0  0  0
  4 38  1  0  0  0  0
  5 39  1  0  0  0  0
  6 40  1  0  0  0  0
  7 41  1  0  0  0  0
  8 42  1  0  0  0  0
  9 43  1  0  0  0  0
 18 44  1  0  0  0  0
 18 45  1  0  0  0  0
 19 46  1  0  0  0  0
 19 47  1  0  0  0  0
 20 48  1  0  0  0  0
 20 49  1  0  0  0  0
 21 50  1  0  0  0  0
 21 51  1  0  0  0  0
 22 52  1  0  0  0  0
 22 53  1  0  0  0  0
 23 54  1  0  0  0  0
 23 55  1  0  0  0  0
 24 56  1  0  0  0  0
 24 57  1  0  0  0  0
 25 58  1  0  0  0  0
 27 59  1  0  0  0  0
 27 60  1  0  0  0  0
M  END
> <scaffold>
chromane-5spiro-isoquinoline

> <compound>
VLA-UNK-f702bf1c-6

> <compound_smiles>
c1ccc2c(c1)cncc2N3C(=O)[C@@]4(CCOc5c4cc(cc5)Cl)N(C3=O)CC6CCCCC6

> <enantiomer_smiles>
c1ccc2c(c1)cncc2N3C(=O)[C@@]4(CCOc5c4cc(cc5)Cl)N(C3=O)CC6CCCCC6

> <clash_score>
8.048972048330628

> <docking_score>
3.4028234663852886e+38

> <overlap_score>
1.0

> <MMFF_internal_energy>
82.17092373310577

> <docked_smiles>
c1ccc2c(c1)cncc2N3C(=O)[C@@]4(CCOc5c4cc(cc5)Cl)N(C3=O)CC6CCCCC6

$$$$
ALP-POS-ecbed2ba-17_1
  -OEChem-01042202313D

 56 60  0     1  0  0  0  0  0999 V2000
    7.2371    5.4333   24.3928 C   0  0  0  0  0  0  0  0  0  0  0  0
    3.3444    2.6278   20.4409 C   0  0  0  0  0  0  0  0  0  0  0  0
    3.8974    1.9290   21.5048 C   0  0  0  0  0  0  0  0  0  0  0  0
    3.7877    2.4205   19.1658 C   0  0  0  0  0  0  0  0  0  0  0  0
    4.8986    1.0232   21.2985 C   0  0  0  0  0  0  0  0  0  0  0  0
   12.0781    0.0316   24.1532 C   0  0  0  0  0  0  0  0  0  0  0  0
   12.9147   -0.6032   23.2559 C   0  0  0  0  0  0  0  0  0  0  0  0
   11.0005   -1.4332   22.0435 C   0  0  0  0  0  0  0  0  0  0  0  0
    5.3288    1.2339   17.6062 C   0  0  0  0  0  0  0  0  0  0  0  0
    6.8449   -0.2893   18.3747 C   0  0  0  0  0  0  0  0  0  0  0  0
    4.8238    1.4906   18.9051 C   0  0  0  0  0  0  0  0  0  0  0  0
    5.3995    0.7732   19.9944 C   0  0  0  0  0  0  0  0  0  0  0  0
   10.7056   -0.0626   23.9890 C   0  0  0  0  0  0  0  0  0  0  0  0
   10.1421   -0.7766   22.9242 C   0  0  0  0  0  0  0  0  0  0  0  0
    6.4452   -0.1472   19.6975 C   0  0  0  0  0  0  0  0  0  0  0  0
   12.3697   -1.3298   22.2224 C   0  0  0  0  0  0  0  0  0  0  0  0
    8.2504    0.0168   21.4265 C   0  0  0  0  0  0  0  0  0  0  0  0
    9.9496    0.5589   24.9527 C   0  0  0  0  0  0  0  0  0  0  0  0
    8.0155   -2.1541   22.4325 C   0  0  0  0  0  0  0  0  0  0  0  0
    6.9880   -1.9367   21.3575 C   0  0  0  0  0  0  0  0  0  0  0  0
    7.8737   -0.1194   23.8825 C   0  0  0  0  0  0  0  0  0  0  0  0
    8.6253   -0.7606   22.6923 C   0  0  3  0  0  0  0  0  0  0  0  0
    9.0279    3.5412   22.7400 C   0  0  0  0  0  0  0  0  0  0  0  0
    6.8280    4.3851   23.4597 C   0  0  0  0  0  0  0  0  0  0  0  0
    7.5593    6.2675   25.1322 N   0  0  0  0  0  0  0  0  0  0  0  0
    6.3072    0.3768   17.3417 N   0  0  0  0  0  0  0  0  0  0  0  0
    7.2305   -0.6898   20.7785 N   0  0  0  0  0  0  0  0  0  0  0  0
    8.6625    1.0133   24.4989 N   0  0  3  0  0  0  0  0  0  0  0  0
    7.7811    3.2457   23.4922 N   0  0  3  0  0  0  0  0  0  0  0  0
    8.7514    1.0901   21.1243 O   0  0  0  0  0  0  0  0  0  0  0  0
    8.8751    3.1333   25.8387 O   0  0  0  0  0  0  0  0  0  0  0  0
    6.6306    2.0578   25.4873 O   0  0  0  0  0  0  0  0  0  0  0  0
    7.9493    2.4047   24.9925 S   0  0  0  0  0  0  0  0  0  0  0  0
   13.4297   -2.1462   21.1126 Cl  0  0  0  0  0  0  0  0  0  0  0  0
    2.5443    3.3508   20.6368 H   0  0  0  0  0  0  0  0  0  0  0  0
    3.5189    2.1137   22.5166 H   0  0  0  0  0  0  0  0  0  0  0  0
    3.3421    2.9744   18.3363 H   0  0  0  0  0  0  0  0  0  0  0  0
    5.3131    0.4893   22.1569 H   0  0  0  0  0  0  0  0  0  0  0  0
   12.5046    0.5852   24.9818 H   0  0  0  0  0  0  0  0  0  0  0  0
   13.9930   -0.5302   23.3869 H   0  0  0  0  0  0  0  0  0  0  0  0
   10.6139   -2.0326   21.2341 H   0  0  0  0  0  0  0  0  0  0  0  0
    4.9151    1.7511   16.7471 H   0  0  0  0  0  0  0  0  0  0  0  0
    7.6455   -0.9765   18.1038 H   0  0  0  0  0  0  0  0  0  0  0  0
    9.7590   -0.1307   25.8193 H   0  0  0  0  0  0  0  0  0  0  0  0
   10.4971    1.4368   25.3930 H   0  0  0  0  0  0  0  0  0  0  0  0
    7.5139   -2.5724   23.3172 H   0  0  0  0  0  0  0  0  0  0  0  0
    8.7710   -2.8991   22.1377 H   0  0  0  0  0  0  0  0  0  0  0  0
    7.0576   -2.7256   20.5712 H   0  0  0  0  0  0  0  0  0  0  0  0
    5.9526   -1.9955   21.7714 H   0  0  0  0  0  0  0  0  0  0  0  0
    6.8959    0.2848   23.5662 H   0  0  0  0  0  0  0  0  0  0  0  0
    7.6721   -0.8632   24.6716 H   0  0  0  0  0  0  0  0  0  0  0  0
    9.7017    2.6733   22.7908 H   0  0  0  0  0  0  0  0  0  0  0  0
    8.7806    3.7523   21.6892 H   0  0  0  0  0  0  0  0  0  0  0  0
    9.5243    4.4171   23.1830 H   0  0  0  0  0  0  0  0  0  0  0  0
    5.8380    3.9955   23.7138 H   0  0  0  0  0  0  0  0  0  0  0  0
    6.7973    4.7613   22.4332 H   0  0  0  0  0  0  0  0  0  0  0  0
  1 24  1  0  0  0  0
  1 25  3  0  0  0  0
  2  3  2  0  0  0  0
  2  4  1  0  0  0  0
  3  5  1  0  0  0  0
  4 11  2  0  0  0  0
  5 12  2  0  0  0  0
  6  7  2  0  0  0  0
  6 13  1  0  0  0  0
  7 16  1  0  0  0  0
  8 14  1  0  0  0  0
  8 16  2  0  0  0  0
  9 11  1  0  0  0  0
  9 26  2  0  0  0  0
 10 15  2  0  0  0  0
 10 26  1  0  0  0  0
 11 12  1  0  0  0  0
 12 15  1  0  0  0  0
 13 14  2  0  0  0  0
 13 18  1  0  0  0  0
 14 22  1  0  0  0  0
 15 27  1  0  0  0  0
 16 34  1  0  0  0  0
 17 22  1  0  0  0  0
 17 27  1  0  0  0  0
 17 30  2  0  0  0  0
 18 28  1  0  0  0  0
 19 20  1  0  0  0  0
 19 22  1  0  0  0  0
 20 27  1  0  0  0  0
 21 22  1  0  0  0  0
 21 28  1  0  0  0  0
 23 29  1  0  0  0  0
 24 29  1  0  0  0  0
 28 33  1  0  0  0  0
 29 33  1  0  0  0  0
 31 33  2  0  0  0  0
 32 33  2  0  0  0  0
  2 35  1  0  0  0  0
  3 36  1  0  0  0  0
  4 37  1  0  0  0  0
  5 38  1  0  0  0  0
  6 39  1  0  0  0  0
  7 40  1  0  0  0  0
  8 41  1  0  0  0  0
  9 42  1  0  0  0  0
 10 43  1  0  0  0  0
 18 44  1  0  0  0  0
 18 45  1  0  0  0  0
 19 46  1  0  0  0  0
 19 47  1  0  0  0  0
 20 48  1  0  0  0  0
 20 49  1  0  0  0  0
 21 50  1  0  0  0  0
 21 51  1  0  0  0  0
 23 52  1  0  0  0  0
 23 53  1  0  0  0  0
 23 54  1  0  0  0  0
 24 55  1  0  0  0  0
 24 56  1  0  0  0  0
M  END
> <scaffold>
tetrahydroisoquinoline-5spiro-isoquinoline

> <compound>
ALP-POS-ecbed2ba-17

> <compound_smiles>
CN(CC#N)S(=O)(=O)N1Cc2ccc(cc2C3(C1)CCN(C3=O)c4cncc5c4cccc5)Cl

> <enantiomer_smiles>
C[N@@](CC#N)S(=O)(=O)[N@]1Cc2ccc(cc2[C@@]3(C1)CCN(C3=O)c4cncc5c4cccc5)Cl

> <clash_score>
0

> <docking_score>
3.4028234663852886e+38

> <overlap_score>
0.9737942814826965

> <MMFF_internal_energy>
-32.948022710793154

> <docked_smiles>
C[N@](CC#N)S(=O)(=O)[N@@]1Cc2ccc(cc2[C@@]3(C1)CCN(C3=O)c4cncc5c4cccc5)Cl

$$$$
PET-UNK-77d5678a-4_1
  -OEChem-01042202313D

 52 57  0     1  0  0  0  0  0999 V2000
    3.3444    2.6278   20.4409 C   0  0  0  0  0  0  0  0  0  0  0  0
    3.8974    1.9290   21.5048 C   0  0  0  0  0  0  0  0  0  0  0  0
    3.7877    2.4205   19.1658 C   0  0  0  0  0  0  0  0  0  0  0  0
    4.8986    1.0232   21.2985 C   0  0  0  0  0  0  0  0  0  0  0  0
   12.0781    0.0316   24.1532 C   0  0  0  0  0  0  0  0  0  0  0  0
   12.9147   -0.6032   23.2559 C   0  0  0  0  0  0  0  0  0  0  0  0
   11.0005   -1.4332   22.0435 C   0  0  0  0  0  0  0  0  0  0  0  0
    5.3288    1.2339   17.6062 C   0  0  0  0  0  0  0  0  0  0  0  0
    6.8449   -0.2893   18.3747 C   0  0  0  0  0  0  0  0  0  0  0  0
    4.8353    3.8560   24.5944 C   0  0  0  0  0  0  0  0  0  0  0  0
    4.8238    1.4906   18.9051 C   0  0  0  0  0  0  0  0  0  0  0  0
    5.3995    0.7732   19.9944 C   0  0  0  0  0  0  0  0  0  0  0  0
   10.7056   -0.0626   23.9890 C   0  0  0  0  0  0  0  0  0  0  0  0
   10.1421   -0.7766   22.9242 C   0  0  0  0  0  0  0  0  0  0  0  0
    6.4452   -0.1472   19.6975 C   0  0  0  0  0  0  0  0  0  0  0  0
   12.3697   -1.3298   22.2224 C   0  0  0  0  0  0  0  0  0  0  0  0
    6.7885    2.6000   25.0122 C   0  0  0  0  0  0  0  0  0  0  0  0
    6.9880   -1.9367   21.3575 C   0  0  0  0  0  0  0  0  0  0  0  0
    8.2504    0.0168   21.4265 C   0  0  0  0  0  0  0  0  0  0  0  0
    9.9496    0.5589   24.9527 C   0  0  0  0  0  0  0  0  0  0  0  0
    8.0155   -2.1541   22.4325 C   0  0  0  0  0  0  0  0  0  0  0  0
    7.8737   -0.1194   23.8825 C   0  0  0  0  0  0  0  0  0  0  0  0
    8.6253   -0.7606   22.6923 C   0  0  3  0  0  0  0  0  0  0  0  0
    7.8607    1.7139   25.5743 C   0  0  0  0  0  0  0  0  0  0  0  0
    6.3072    0.3768   17.3417 N   0  0  0  0  0  0  0  0  0  0  0  0
    5.7108    3.9770   23.6194 N   0  0  0  0  0  0  0  0  0  0  0  0
    6.8561    3.2395   23.8640 N   0  0  0  0  0  0  0  0  0  0  0  0
    7.2305   -0.6898   20.7785 N   0  0  0  0  0  0  0  0  0  0  0  0
    8.6625    1.0133   24.4989 N   0  3  3  0  0  0  0  0  0  0  0  0
    6.1284   -2.7641   21.0974 O   0  0  0  0  0  0  0  0  0  0  0  0
    8.7863    1.0639   21.1045 O   0  0  0  0  0  0  0  0  0  0  0  0
    5.3319    2.8412   25.8849 S   0  0  0  0  0  0  0  0  0  0  0  0
   13.4283   -2.1431   21.1089 Cl  0  0  0  0  0  0  0  0  0  0  0  0
    2.5443    3.3508   20.6368 H   0  0  0  0  0  0  0  0  0  0  0  0
    3.5189    2.1137   22.5166 H   0  0  0  0  0  0  0  0  0  0  0  0
    3.3421    2.9744   18.3363 H   0  0  0  0  0  0  0  0  0  0  0  0
    5.3131    0.4893   22.1569 H   0  0  0  0  0  0  0  0  0  0  0  0
   12.5037    0.5971   24.9740 H   0  0  0  0  0  0  0  0  0  0  0  0
   13.9927   -0.5178   23.3781 H   0  0  0  0  0  0  0  0  0  0  0  0
   10.6049   -2.0174   21.2244 H   0  0  0  0  0  0  0  0  0  0  0  0
    4.9151    1.7511   16.7471 H   0  0  0  0  0  0  0  0  0  0  0  0
    7.6455   -0.9765   18.1038 H   0  0  0  0  0  0  0  0  0  0  0  0
    3.8775    4.3567   24.5844 H   0  0  0  0  0  0  0  0  0  0  0  0
    9.7635   -0.1197   25.8259 H   0  0  0  0  0  0  0  0  0  0  0  0
   10.4589    1.4668   25.3682 H   0  0  0  0  0  0  0  0  0  0  0  0
    7.4976   -2.5684   23.3064 H   0  0  0  0  0  0  0  0  0  0  0  0
    8.7549   -2.8877   22.0933 H   0  0  0  0  0  0  0  0  0  0  0  0
    6.8982    0.2933   23.5699 H   0  0  0  0  0  0  0  0  0  0  0  0
    7.6760   -0.8475   24.6905 H   0  0  0  0  0  0  0  0  0  0  0  0
    8.5604    2.2839   26.1949 H   0  0  0  0  0  0  0  0  0  0  0  0
    7.4324    0.9208   26.1967 H   0  0  0  0  0  0  0  0  0  0  0  0
    8.7951    1.7240   23.7548 H   0  0  0  0  0  0  0  0  0  0  0  0
  1  2  2  0  0  0  0
  1  3  1  0  0  0  0
  2  4  1  0  0  0  0
  3 11  2  0  0  0  0
  4 12  2  0  0  0  0
  5  6  2  0  0  0  0
  5 13  1  0  0  0  0
  6 16  1  0  0  0  0
  7 14  1  0  0  0  0
  7 16  2  0  0  0  0
  8 11  1  0  0  0  0
  8 25  2  0  0  0  0
  9 15  2  0  0  0  0
  9 25  1  0  0  0  0
 10 26  2  0  0  0  0
 10 32  1  0  0  0  0
 11 12  1  0  0  0  0
 12 15  1  0  0  0  0
 13 14  2  0  0  0  0
 13 20  1  0  0  0  0
 14 23  1  0  0  0  0
 15 28  1  0  0  0  0
 16 33  1  0  0  0  0
 17 24  1  0  0  0  0
 17 27  2  0  0  0  0
 17 32  1  0  0  0  0
 18 21  1  0  0  0  0
 18 28  1  0  0  0  0
 18 30  2  0  0  0  0
 19 23  1  0  0  0  0
 19 28  1  0  0  0  0
 19 31  2  0  0  0  0
 20 29  1  0  0  0  0
 21 23  1  0  0  0  0
 22 23  1  0  0  0  0
 22 29  1  0  0  0  0
 24 29  1  0  0  0  0
 26 27  1  0  0  0  0
  1 34  1  0  0  0  0
  2 35  1  0  0  0  0
  3 36  1  0  0  0  0
  4 37  1  0  0  0  0
  5 38  1  0  0  0  0
  6 39  1  0  0  0  0
  7 40  1  0  0  0  0
  8 41  1  0  0  0  0
  9 42  1  0  0  0  0
 10 43  1  0  0  0  0
 20 44  1  0  0  0  0
 20 45  1  0  0  0  0
 21 46  1  0  0  0  0
 21 47  1  0  0  0  0
 22 48  1  0  0  0  0
 22 49  1  0  0  0  0
 24 50  1  0  0  0  0
 24 51  1  0  0  0  0
 29 52  1  0  0  0  0
M  CHG  1  29   1
M  END
> <scaffold>
tetrahydroisoquinoline-5spiro-isoquinoline

> <compound>
PET-UNK-77d5678a-4

> <compound_smiles>
c1ccc2c(c1)cncc2N3C(=O)CC4(C3=O)CN(Cc5c4cc(cc5)Cl)Cc6nncs6

> <enantiomer_smiles>
c1ccc2c(c1)cncc2N3C(=O)C[C@]4(C3=O)C[N@](Cc5c4cc(cc5)Cl)Cc6nncs6

> <clash_score>
0

> <docking_score>
3.4028234663852886e+38

> <overlap_score>
1.0

> <MMFF_internal_energy>
109.85582320168078

> <docked_smiles>
c1ccc2c(c1)cncc2N3C(=O)C[C@]4(C3=O)C[N@H+](Cc5c4cc(cc5)Cl)Cc6nncs6

$$$$
EDJ-MED-cc48ee33-7_1
  -OEChem-01042202313D

 56 61  0     1  0  0  0  0  0999 V2000
    3.3444    2.6278   20.4409 C   0  0  0  0  0  0  0  0  0  0  0  0
    3.8974    1.9290   21.5048 C   0  0  0  0  0  0  0  0  0  0  0  0
    3.7877    2.4205   19.1658 C   0  0  0  0  0  0  0  0  0  0  0  0
    4.8986    1.0232   21.2985 C   0  0  0  0  0  0  0  0  0  0  0  0
   12.0781    0.0316   24.1532 C   0  0  0  0  0  0  0  0  0  0  0  0
   12.9147   -0.6032   23.2559 C   0  0  0  0  0  0  0  0  0  0  0  0
    6.0791    1.6995   26.3506 C   0  0  0  0  0  0  0  0  0  0  0  0
   11.0005   -1.4332   22.0435 C   0  0  0  0  0  0  0  0  0  0  0  0
    5.8892    2.0145   27.7094 C   0  0  0  0  0  0  0  0  0  0  0  0
    5.3288    1.2339   17.6062 C   0  0  0  0  0  0  0  0  0  0  0  0
    6.8449   -0.2893   18.3747 C   0  0  0  0  0  0  0  0  0  0  0  0
    4.8238    1.4906   18.9051 C   0  0  0  0  0  0  0  0  0  0  0  0
    5.3995    0.7732   19.9944 C   0  0  0  0  0  0  0  0  0  0  0  0
   10.7056   -0.0626   23.9890 C   0  0  0  0  0  0  0  0  0  0  0  0
   10.1421   -0.7766   22.9242 C   0  0  0  0  0  0  0  0  0  0  0  0
    6.4452   -0.1472   19.6975 C   0  0  0  0  0  0  0  0  0  0  0  0
   12.3697   -1.3298   22.2224 C   0  0  0  0  0  0  0  0  0  0  0  0
    7.3127    2.2213   26.0463 C   0  0  0  0  0  0  0  0  0  0  0  0
    9.9496    0.5589   24.9527 C   0  0  0  0  0  0  0  0  0  0  0  0
    8.2504    0.0168   21.4265 C   0  0  0  0  0  0  0  0  0  0  0  0
    8.0155   -2.1541   22.4325 C   0  0  0  0  0  0  0  0  0  0  0  0
    6.9880   -1.9367   21.3575 C   0  0  0  0  0  0  0  0  0  0  0  0
    7.8737   -0.1194   23.8825 C   0  0  0  0  0  0  0  0  0  0  0  0
    8.6253   -0.7606   22.6923 C   0  0  3  0  0  0  0  0  0  0  0  0
    9.0278    3.4773   27.3864 C   0  0  0  0  0  0  0  0  0  0  0  0
    8.0937    2.2235   24.7641 C   0  0  0  0  0  0  0  0  0  0  0  0
    6.3072    0.3768   17.3417 N   0  0  0  0  0  0  0  0  0  0  0  0
    6.9197    2.6844   28.2324 N   0  0  0  0  0  0  0  0  0  0  0  0
    7.7690    2.7944   27.1967 N   0  0  0  0  0  0  0  0  0  0  0  0
    7.2305   -0.6898   20.7785 N   0  0  0  0  0  0  0  0  0  0  0  0
    8.6625    1.0133   24.4989 N   0  0  0  0  0  0  0  0  0  0  0  0
   10.3233    0.7301   26.1084 O   0  0  0  0  0  0  0  0  0  0  0  0
    8.8205    1.0412   21.0776 O   0  0  0  0  0  0  0  0  0  0  0  0
   13.4288   -2.1465   21.1124 Cl  0  0  0  0  0  0  0  0  0  0  0  0
    2.5443    3.3508   20.6368 H   0  0  0  0  0  0  0  0  0  0  0  0
    3.5189    2.1137   22.5166 H   0  0  0  0  0  0  0  0  0  0  0  0
    3.3421    2.9744   18.3363 H   0  0  0  0  0  0  0  0  0  0  0  0
    5.3131    0.4893   22.1569 H   0  0  0  0  0  0  0  0  0  0  0  0
   12.5188    0.5961   24.9710 H   0  0  0  0  0  0  0  0  0  0  0  0
   13.9920   -0.5226   23.3817 H   0  0  0  0  0  0  0  0  0  0  0  0
    5.4126    1.1682   25.6869 H   0  0  0  0  0  0  0  0  0  0  0  0
   10.6143   -2.0253   21.2266 H   0  0  0  0  0  0  0  0  0  0  0  0
    5.0428    1.7838   28.3403 H   0  0  0  0  0  0  0  0  0  0  0  0
    4.9151    1.7511   16.7471 H   0  0  0  0  0  0  0  0  0  0  0  0
    7.6455   -0.9765   18.1038 H   0  0  0  0  0  0  0  0  0  0  0  0
    7.5128   -2.5277   23.3386 H   0  0  0  0  0  0  0  0  0  0  0  0
    8.7593   -2.9102   22.1430 H   0  0  0  0  0  0  0  0  0  0  0  0
    7.0602   -2.7255   20.5716 H   0  0  0  0  0  0  0  0  0  0  0  0
    5.9526   -1.9964   21.7706 H   0  0  0  0  0  0  0  0  0  0  0  0
    6.9217    0.3182   23.5732 H   0  0  0  0  0  0  0  0  0  0  0  0
    7.6678   -0.8543   24.6617 H   0  0  0  0  0  0  0  0  0  0  0  0
    8.8748    4.5358   27.1600 H   0  0  0  0  0  0  0  0  0  0  0  0
    9.3580    3.3515   28.4213 H   0  0  0  0  0  0  0  0  0  0  0  0
    9.7772    3.0464   26.7165 H   0  0  0  0  0  0  0  0  0  0  0  0
    7.4480    2.4865   23.9191 H   0  0  0  0  0  0  0  0  0  0  0  0
    8.9021    2.9615   24.7977 H   0  0  0  0  0  0  0  0  0  0  0  0
  1  2  2  0  0  0  0
  1  3  1  0  0  0  0
  2  4  1  0  0  0  0
  3 12  2  0  0  0  0
  4 13  2  0  0  0  0
  5  6  2  0  0  0  0
  5 14  1  0  0  0  0
  6 17  1  0  0  0  0
  7  9  1  0  0  0  0
  7 18  2  0  0  0  0
  8 15  1  0  0  0  0
  8 17  2  0  0  0  0
  9 28  2  0  0  0  0
 10 12  1  0  0  0  0
 10 27  2  0  0  0  0
 11 16  2  0  0  0  0
 11 27  1  0  0  0  0
 12 13  1  0  0  0  0
 13 16  1  0  0  0  0
 14 15  2  0  0  0  0
 14 19  1  0  0  0  0
 15 24  1  0  0  0  0
 16 30  1  0  0  0  0
 17 34  1  0  0  0  0
 18 26  1  0  0  0  0
 18 29  1  0  0  0  0
 19 31  1  0  0  0  0
 19 32  2  0  0  0  0
 20 24  1  0  0  0  0
 20 30  1  0  0  0  0
 20 33  2  0  0  0  0
 21 22  1  0  0  0  0
 21 24  1  0  0  0  0
 22 30  1  0  0  0  0
 23 24  1  0  0  0  0
 23 31  1  0  0  0  0
 25 29  1  0  0  0  0
 26 31  1  0  0  0  0
 28 29  1  0  0  0  0
  1 35  1  0  0  0  0
  2 36  1  0  0  0  0
  3 37  1  0  0  0  0
  4 38  1  0  0  0  0
  5 39  1  0  0  0  0
  6 40  1  0  0  0  0
  7 41  1  0  0  0  0
  8 42  1  0  0  0  0
  9 43  1  0  0  0  0
 10 44  1  0  0  0  0
 11 45  1  0  0  0  0
 21 46  1  0  0  0  0
 21 47  1  0  0  0  0
 22 48  1  0  0  0  0
 22 49  1  0  0  0  0
 23 50  1  0  0  0  0
 23 51  1  0  0  0  0
 25 52  1  0  0  0  0
 25 53  1  0  0  0  0
 25 54  1  0  0  0  0
 26 55  1  0  0  0  0
 26 56  1  0  0  0  0
M  END
> <scaffold>
tetrahydroisoquinoline-5spiro-isoquinoline

> <compound>
EDJ-MED-cc48ee33-7

> <compound_smiles>
Cn1c(ccn1)CN2CC3(CCN(C3=O)c4cncc5c4cccc5)c6cc(ccc6C2=O)Cl

> <enantiomer_smiles>
Cn1c(ccn1)CN2C[C@]3(CCN(C3=O)c4cncc5c4cccc5)c6cc(ccc6C2=O)Cl

> <clash_score>
0

> <docking_score>
3.4028234663852886e+38

> <overlap_score>
0.9843671917915344

> <MMFF_internal_energy>
144.46952982635662

> <docked_smiles>
Cn1c(ccn1)CN2C[C@]3(CCN(C3=O)c4cncc5c4cccc5)c6cc(ccc6C2=O)Cl

$$$$
EDJ-MED-94fddcec-6_1
  -OEChem-01042202313D

 56 60  0     1  0  0  0  0  0999 V2000
    4.8986    1.0232   21.2985 C   0  0  0  0  0  0  0  0  0  0  0  0
    3.8974    1.9290   21.5048 C   0  0  0  0  0  0  0  0  0  0  0  0
   12.0781    0.0316   24.1532 C   0  0  0  0  0  0  0  0  0  0  0  0
   12.9147   -0.6032   23.2559 C   0  0  0  0  0  0  0  0  0  0  0  0
    3.7877    2.4205   19.1658 C   0  0  0  0  0  0  0  0  0  0  0  0
   11.0005   -1.4332   22.0435 C   0  0  0  0  0  0  0  0  0  0  0  0
    5.3288    1.2339   17.6062 C   0  0  0  0  0  0  0  0  0  0  0  0
    6.8449   -0.2893   18.3747 C   0  0  0  0  0  0  0  0  0  0  0  0
    5.3995    0.7732   19.9944 C   0  0  0  0  0  0  0  0  0  0  0  0
    4.8238    1.4906   18.9051 C   0  0  0  0  0  0  0  0  0  0  0  0
   10.1421   -0.7766   22.9242 C   0  0  0  0  0  0  0  0  0  0  0  0
    6.4452   -0.1472   19.6975 C   0  0  0  0  0  0  0  0  0  0  0  0
    3.3444    2.6278   20.4409 C   0  0  0  0  0  0  0  0  0  0  0  0
   10.7056   -0.0626   23.9890 C   0  0  0  0  0  0  0  0  0  0  0  0
   12.3697   -1.3298   22.2224 C   0  0  0  0  0  0  0  0  0  0  0  0
    8.2504    0.0168   21.4265 C   0  0  0  0  0  0  0  0  0  0  0  0
    8.0155   -2.1541   22.4325 C   0  0  0  0  0  0  0  0  0  0  0  0
    7.8737   -0.1194   23.8825 C   0  0  0  0  0  0  0  0  0  0  0  0
    6.9880   -1.9367   21.3575 C   0  0  0  0  0  0  0  0  0  0  0  0
    8.6625    1.0133   24.4989 C   0  0  0  0  0  0  0  0  0  0  0  0
    8.6253   -0.7606   22.6923 C   0  0  3  0  0  0  0  0  0  0  0  0
    1.0423    3.0693   21.3260 C   0  0  0  0  0  0  0  0  0  0  0  0
    2.9198    5.1311   22.8307 C   0  0  0  0  0  0  0  0  0  0  0  0
    6.3072    0.3768   17.3417 N   0  0  0  0  0  0  0  0  0  0  0  0
    7.2305   -0.6898   20.7785 N   0  0  0  0  0  0  0  0  0  0  0  0
    2.2947    3.5766   20.6954 N   0  0  3  0  0  0  0  0  0  0  0  0
    8.7566    1.0941   21.1311 O   0  0  0  0  0  0  0  0  0  0  0  0
    9.7120   -0.4300   26.1378 O   0  0  0  0  0  0  0  0  0  0  0  0
   10.7467    1.7884   25.4917 O   0  0  0  0  0  0  0  0  0  0  0  0
    1.6707    6.0993   20.7630 O   0  0  0  0  0  0  0  0  0  0  0  0
    4.0905    5.4584   20.5190 O   0  0  0  0  0  0  0  0  0  0  0  0
    9.9496    0.5589   24.9527 S   0  0  0  0  0  0  0  0  0  0  0  0
    2.7689    5.1970   21.0576 S   0  0  0  0  0  0  0  0  0  0  0  0
   13.4302   -2.1437   21.1108 Cl  0  0  0  0  0  0  0  0  0  0  0  0
    5.3129    0.4891   22.1565 H   0  0  0  0  0  0  0  0  0  0  0  0
    3.5264    2.1066   22.5215 H   0  0  0  0  0  0  0  0  0  0  0  0
   12.5141    0.5961   24.9741 H   0  0  0  0  0  0  0  0  0  0  0  0
   13.9930   -0.5214   23.3817 H   0  0  0  0  0  0  0  0  0  0  0  0
    3.3490    2.9700   18.3283 H   0  0  0  0  0  0  0  0  0  0  0  0
   10.6120   -2.0228   21.2300 H   0  0  0  0  0  0  0  0  0  0  0  0
    4.9144    1.7516   16.7476 H   0  0  0  0  0  0  0  0  0  0  0  0
    7.6459   -0.9758   18.1038 H   0  0  0  0  0  0  0  0  0  0  0  0
    7.5792   -2.6139   23.3283 H   0  0  0  0  0  0  0  0  0  0  0  0
    8.7727   -2.8629   22.0635 H   0  0  0  0  0  0  0  0  0  0  0  0
    7.6629   -0.8655   24.6523 H   0  0  0  0  0  0  0  0  0  0  0  0
    6.9026    0.2573   23.5461 H   0  0  0  0  0  0  0  0  0  0  0  0
    7.0247   -2.7501   20.5941 H   0  0  0  0  0  0  0  0  0  0  0  0
    5.9565   -1.9488   21.7820 H   0  0  0  0  0  0  0  0  0  0  0  0
    8.7048    1.8247   23.7053 H   0  0  0  0  0  0  0  0  0  0  0  0
    8.0006    1.4860   25.2925 H   0  0  0  0  0  0  0  0  0  0  0  0
    0.3374    3.9023   21.4645 H   0  0  0  0  0  0  0  0  0  0  0  0
    0.5868    2.3080   20.6756 H   0  0  0  0  0  0  0  0  0  0  0  0
    1.2787    2.6229   22.3031 H   0  0  0  0  0  0  0  0  0  0  0  0
    3.2213    6.1172   23.1875 H   0  0  0  0  0  0  0  0  0  0  0  0
    1.9511    4.8530   23.2486 H   0  0  0  0  0  0  0  0  0  0  0  0
    3.6745    4.3852   23.0845 H   0  0  0  0  0  0  0  0  0  0  0  0
  1  2  2  0  0  0  0
  1  9  1  0  0  0  0
  2 13  1  0  0  0  0
  3  4  2  0  0  0  0
  3 14  1  0  0  0  0
  4 15  1  0  0  0  0
  5 10  1  0  0  0  0
  5 13  2  0  0  0  0
  6 11  1  0  0  0  0
  6 15  2  0  0  0  0
  7 10  2  0  0  0  0
  7 24  1  0  0  0  0
  8 12  1  0  0  0  0
  8 24  2  0  0  0  0
  9 10  1  0  0  0  0
  9 12  2  0  0  0  0
 11 14  2  0  0  0  0
 11 21  1  0  0  0  0
 12 25  1  0  0  0  0
 13 26  1  0  0  0  0
 14 32  1  0  0  0  0
 15 34  1  0  0  0  0
 16 21  1  0  0  0  0
 16 25  1  0  0  0  0
 16 27  2  0  0  0  0
 17 19  1  0  0  0  0
 17 21  1  0  0  0  0
 18 20  1  0  0  0  0
 18 21  1  0  0  0  0
 19 25  1  0  0  0  0
 20 32  1  0  0  0  0
 22 26  1  0  0  0  0
 23 33  1  0  0  0  0
 26 33  1  0  0  0  0
 28 32  2  0  0  0  0
 29 32  2  0  0  0  0
 30 33  2  0  0  0  0
 31 33  2  0  0  0  0
  1 35  1  0  0  0  0
  2 36  1  0  0  0  0
  3 37  1  0  0  0  0
  4 38  1  0  0  0  0
  5 39  1  0  0  0  0
  6 40  1  0  0  0  0
  7 41  1  0  0  0  0
  8 42  1  0  0  0  0
 17 43  1  0  0  0  0
 17 44  1  0  0  0  0
 18 45  1  0  0  0  0
 18 46  1  0  0  0  0
 19 47  1  0  0  0  0
 19 48  1  0  0  0  0
 20 49  1  0  0  0  0
 20 50  1  0  0  0  0
 22 51  1  0  0  0  0
 22 52  1  0  0  0  0
 22 53  1  0  0  0  0
 23 54  1  0  0  0  0
 23 55  1  0  0  0  0
 23 56  1  0  0  0  0
M  END
> <scaffold>
tetralinlike-5spiro-isoquinoline

> <compound>
EDJ-MED-94fddcec-6

> <compound_smiles>
CN(c1ccc2c(c1)cncc2N3CCC4(C3=O)CCS(=O)(=O)c5c4cc(cc5)Cl)S(=O)(=O)C

> <enantiomer_smiles>
C[N@](c1ccc2c(c1)cncc2N3CC[C@@]4(C3=O)CCS(=O)(=O)c5c4cc(cc5)Cl)S(=O)(=O)C

> <clash_score>
0.7168183810318016

> <docking_score>
3.4028234663852886e+38

> <overlap_score>
1.0

> <MMFF_internal_energy>
264.04547410265224

> <docked_smiles>
C[N@](c1ccc2c(c1)cncc2N3CC[C@@]4(C3=O)CCS(=O)(=O)c5c4cc(cc5)Cl)S(=O)(=O)C

$$$$
MAT-POS-576f7758-2_1
  -OEChem-01042202313D

 57 62  0     1  0  0  0  0  0999 V2000
    3.3444    2.6278   20.4409 C   0  0  0  0  0  0  0  0  0  0  0  0
    3.8974    1.9290   21.5048 C   0  0  0  0  0  0  0  0  0  0  0  0
    3.7877    2.4205   19.1658 C   0  0  0  0  0  0  0  0  0  0  0  0
    4.8986    1.0232   21.2985 C   0  0  0  0  0  0  0  0  0  0  0  0
   12.0781    0.0316   24.1532 C   0  0  0  0  0  0  0  0  0  0  0  0
   12.9147   -0.6032   23.2559 C   0  0  0  0  0  0  0  0  0  0  0  0
   11.0005   -1.4332   22.0435 C   0  0  0  0  0  0  0  0  0  0  0  0
    5.3288    1.2339   17.6062 C   0  0  0  0  0  0  0  0  0  0  0  0
    6.8449   -0.2893   18.3747 C   0  0  0  0  0  0  0  0  0  0  0  0
    4.8238    1.4906   18.9051 C   0  0  0  0  0  0  0  0  0  0  0  0
    5.3995    0.7732   19.9944 C   0  0  0  0  0  0  0  0  0  0  0  0
   10.7056   -0.0626   23.9890 C   0  0  0  0  0  0  0  0  0  0  0  0
   10.1421   -0.7766   22.9242 C   0  0  0  0  0  0  0  0  0  0  0  0
    6.4452   -0.1472   19.6975 C   0  0  0  0  0  0  0  0  0  0  0  0
   12.3697   -1.3298   22.2224 C   0  0  0  0  0  0  0  0  0  0  0  0
    9.9496    0.5589   24.9527 C   0  0  0  0  0  0  0  0  0  0  0  0
    8.2504    0.0168   21.4265 C   0  0  0  0  0  0  0  0  0  0  0  0
    7.2743    2.2339   25.9911 C   0  0  0  0  0  0  0  0  0  0  0  0
    7.6484    3.1063   23.6248 C   0  0  0  0  0  0  0  0  0  0  0  0
    8.8572    3.4809   24.4312 C   0  0  0  0  0  0  0  0  0  0  0  0
    8.0155   -2.1541   22.4325 C   0  0  0  0  0  0  0  0  0  0  0  0
    6.9880   -1.9367   21.3575 C   0  0  0  0  0  0  0  0  0  0  0  0
    7.8737   -0.1194   23.8825 C   0  0  0  0  0  0  0  0  0  0  0  0
    8.6253   -0.7606   22.6923 C   0  0  3  0  0  0  0  0  0  0  0  0
    8.0937    2.2235   24.7641 C   0  0  0  0  0  0  0  0  0  0  0  0
    7.3837    1.9520   28.4592 C   0  0  0  0  0  0  0  0  0  0  0  0
    6.3072    0.3768   17.3417 N   0  0  0  0  0  0  0  0  0  0  0  0
    7.2305   -0.6898   20.7785 N   0  0  0  0  0  0  0  0  0  0  0  0
    8.6625    1.0133   24.4989 N   0  0  0  0  0  0  0  0  0  0  0  0
    7.9894    1.9860   27.1473 N   0  0  0  0  0  0  0  0  0  0  0  0
   10.3233    0.7301   26.1084 O   0  0  0  0  0  0  0  0  0  0  0  0
    8.8205    1.0412   21.0776 O   0  0  0  0  0  0  0  0  0  0  0  0
    6.0711    2.4522   25.9123 O   0  0  0  0  0  0  0  0  0  0  0  0
   13.4287   -2.1467   21.1125 Cl  0  0  0  0  0  0  0  0  0  0  0  0
    2.5443    3.3508   20.6368 H   0  0  0  0  0  0  0  0  0  0  0  0
    3.5189    2.1137   22.5166 H   0  0  0  0  0  0  0  0  0  0  0  0
    3.3421    2.9744   18.3363 H   0  0  0  0  0  0  0  0  0  0  0  0
    5.3131    0.4893   22.1569 H   0  0  0  0  0  0  0  0  0  0  0  0
   12.5188    0.5959   24.9712 H   0  0  0  0  0  0  0  0  0  0  0  0
   13.9920   -0.5225   23.3819 H   0  0  0  0  0  0  0  0  0  0  0  0
   10.6143   -2.0253   21.2265 H   0  0  0  0  0  0  0  0  0  0  0  0
    4.9151    1.7511   16.7471 H   0  0  0  0  0  0  0  0  0  0  0  0
    7.6455   -0.9765   18.1038 H   0  0  0  0  0  0  0  0  0  0  0  0
    6.7552    3.7072   23.7499 H   0  0  0  0  0  0  0  0  0  0  0  0
    7.8098    2.7620   22.6100 H   0  0  0  0  0  0  0  0  0  0  0  0
    9.8268    3.3863   23.9564 H   0  0  0  0  0  0  0  0  0  0  0  0
    8.7731    4.3325   25.0962 H   0  0  0  0  0  0  0  0  0  0  0  0
    7.5125   -2.5270   23.3387 H   0  0  0  0  0  0  0  0  0  0  0  0
    8.7589   -2.9107   22.1432 H   0  0  0  0  0  0  0  0  0  0  0  0
    7.0600   -2.7259   20.5720 H   0  0  0  0  0  0  0  0  0  0  0  0
    5.9527   -1.9961   21.7709 H   0  0  0  0  0  0  0  0  0  0  0  0
    6.9276    0.3247   23.5633 H   0  0  0  0  0  0  0  0  0  0  0  0
    7.6527   -0.8545   24.6567 H   0  0  0  0  0  0  0  0  0  0  0  0
    7.4071    2.9593   28.9006 H   0  0  0  0  0  0  0  0  0  0  0  0
    6.3405    1.6140   28.3726 H   0  0  0  0  0  0  0  0  0  0  0  0
    7.9423    1.2567   29.1029 H   0  0  0  0  0  0  0  0  0  0  0  0
    8.9884    1.8197   27.0716 H   0  0  0  0  0  0  0  0  0  0  0  0
  1  2  2  0  0  0  0
  1  3  1  0  0  0  0
  2  4  1  0  0  0  0
  3 10  2  0  0  0  0
  4 11  2  0  0  0  0
  5  6  2  0  0  0  0
  5 12  1  0  0  0  0
  6 15  1  0  0  0  0
  7 13  1  0  0  0  0
  7 15  2  0  0  0  0
  8 10  1  0  0  0  0
  8 27  2  0  0  0  0
  9 14  2  0  0  0  0
  9 27  1  0  0  0  0
 10 11  1  0  0  0  0
 11 14  1  0  0  0  0
 12 13  2  0  0  0  0
 12 16  1  0  0  0  0
 13 24  1  0  0  0  0
 14 28  1  0  0  0  0
 15 34  1  0  0  0  0
 16 29  1  0  0  0  0
 16 31  2  0  0  0  0
 17 24  1  0  0  0  0
 17 28  1  0  0  0  0
 17 32  2  0  0  0  0
 18 25  1  0  0  0  0
 18 30  1  0  0  0  0
 18 33  2  0  0  0  0
 19 20  1  0  0  0  0
 19 25  1  0  0  0  0
 20 25  1  0  0  0  0
 21 22  1  0  0  0  0
 21 24  1  0  0  0  0
 22 28  1  0  0  0  0
 23 24  1  0  0  0  0
 23 29  1  0  0  0  0
 25 29  1  0  0  0  0
 26 30  1  0  0  0  0
  1 35  1  0  0  0  0
  2 36  1  0  0  0  0
  3 37  1  0  0  0  0
  4 38  1  0  0  0  0
  5 39  1  0  0  0  0
  6 40  1  0  0  0  0
  7 41  1  0  0  0  0
  8 42  1  0  0  0  0
  9 43  1  0  0  0  0
 19 44  1  0  0  0  0
 19 45  1  0  0  0  0
 20 46  1  0  0  0  0
 20 47  1  0  0  0  0
 21 48  1  0  0  0  0
 21 49  1  0  0  0  0
 22 50  1  0  0  0  0
 22 51  1  0  0  0  0
 23 52  1  0  0  0  0
 23 53  1  0  0  0  0
 26 54  1  0  0  0  0
 26 55  1  0  0  0  0
 26 56  1  0  0  0  0
 30 57  1  0  0  0  0
M  END
> <scaffold>
tetrahydroisoquinoline-5spiro-isoquinoline

> <compound>
MAT-POS-576f7758-2

> <compound_smiles>
CNC(=O)C1(CC1)N2CC3(CCN(C3=O)c4cncc5c4cccc5)c6cc(ccc6C2=O)Cl

> <enantiomer_smiles>
CNC(=O)C1(CC1)N2C[C@]3(CCN(C3=O)c4cncc5c4cccc5)c6cc(ccc6C2=O)Cl

> <clash_score>
0

> <docking_score>
3.4028234663852886e+38

> <overlap_score>
0.9885486960411072

> <MMFF_internal_energy>
145.3969363083449

> <docked_smiles>
CNC(=O)C1(CC1)N2C[C@]3(CCN(C3=O)c4cncc5c4cccc5)c6cc(ccc6C2=O)Cl

$$$$
VLA-UNK-f702bf1c-4_2
  -OEChem-01042202313D

 55 60  0     1  0  0  0  0  0999 V2000
    3.3444    2.6278   20.4409 C   0  0  0  0  0  0  0  0  0  0  0  0
    3.8974    1.9290   21.5048 C   0  0  0  0  0  0  0  0  0  0  0  0
    3.7877    2.4205   19.1658 C   0  0  0  0  0  0  0  0  0  0  0  0
    4.8986    1.0232   21.2985 C   0  0  0  0  0  0  0  0  0  0  0  0
   12.0781    0.0316   24.1532 C   0  0  0  0  0  0  0  0  0  0  0  0
   12.9147   -0.6032   23.2559 C   0  0  0  0  0  0  0  0  0  0  0  0
   11.0005   -1.4332   22.0435 C   0  0  0  0  0  0  0  0  0  0  0  0
    5.3288    1.2339   17.6062 C   0  0  0  0  0  0  0  0  0  0  0  0
    6.8449   -0.2893   18.3747 C   0  0  0  0  0  0  0  0  0  0  0  0
    4.8238    1.4906   18.9051 C   0  0  0  0  0  0  0  0  0  0  0  0
    5.3995    0.7732   19.9944 C   0  0  0  0  0  0  0  0  0  0  0  0
   10.1421   -0.7766   22.9242 C   0  0  0  0  0  0  0  0  0  0  0  0
    6.4452   -0.1472   19.6975 C   0  0  0  0  0  0  0  0  0  0  0  0
   10.7056   -0.0626   23.9890 C   0  0  0  0  0  0  0  0  0  0  0  0
   12.3697   -1.3298   22.2224 C   0  0  0  0  0  0  0  0  0  0  0  0
    9.1348   -6.7485   21.9948 C   0  0  0  0  0  0  0  0  0  0  0  0
    8.2504    0.0168   21.4265 C   0  0  0  0  0  0  0  0  0  0  0  0
    6.9880   -1.9367   21.3575 C   0  0  0  0  0  0  0  0  0  0  0  0
    9.4403   -5.5508   22.8612 C   0  0  0  0  0  0  0  0  0  0  0  0
    7.8737   -0.1194   23.8825 C   0  0  0  0  0  0  0  0  0  0  0  0
    7.5034   -5.1214   21.5152 C   0  0  0  0  0  0  0  0  0  0  0  0
    8.6625    1.0133   24.4989 C   0  0  0  0  0  0  0  0  0  0  0  0
    8.6837   -4.4148   22.1655 C   0  0  1  0  0  0  0  0  0  0  0  0
    8.6253   -0.7606   22.6923 C   0  0  2  0  0  0  0  0  0  0  0  0
    8.2670   -3.3056   23.1149 C   0  0  0  0  0  0  0  0  0  0  0  0
    6.3072    0.3768   17.3417 N   0  0  0  0  0  0  0  0  0  0  0  0
    8.0133   -6.4350   21.2362 N   0  0  0  0  0  0  0  0  0  0  0  0
    7.2305   -0.6898   20.7785 N   0  0  0  0  0  0  0  0  0  0  0  0
    8.0155   -2.1541   22.4325 N   0  0  0  0  0  0  0  0  0  0  0  0
    9.7499   -7.8037   22.0053 O   0  0  0  0  0  0  0  0  0  0  0  0
    8.8030    1.0413   21.0842 O   0  0  0  0  0  0  0  0  0  0  0  0
    6.1158   -2.7517   21.1386 O   0  0  0  0  0  0  0  0  0  0  0  0
    9.9496    0.5589   24.9527 O   0  0  0  0  0  0  0  0  0  0  0  0
   13.4278   -2.1472   21.1115 Cl  0  0  0  0  0  0  0  0  0  0  0  0
    2.5443    3.3508   20.6368 H   0  0  0  0  0  0  0  0  0  0  0  0
    3.5189    2.1137   22.5166 H   0  0  0  0  0  0  0  0  0  0  0  0
    3.3421    2.9744   18.3363 H   0  0  0  0  0  0  0  0  0  0  0  0
    5.3131    0.4893   22.1569 H   0  0  0  0  0  0  0  0  0  0  0  0
   12.5017    0.6065   24.9715 H   0  0  0  0  0  0  0  0  0  0  0  0
   13.9924   -0.5157   23.3773 H   0  0  0  0  0  0  0  0  0  0  0  0
   10.6031   -2.0252   21.2295 H   0  0  0  0  0  0  0  0  0  0  0  0
    4.9151    1.7511   16.7471 H   0  0  0  0  0  0  0  0  0  0  0  0
    7.6455   -0.9765   18.1038 H   0  0  0  0  0  0  0  0  0  0  0  0
    9.1115   -5.7186   23.8883 H   0  0  0  0  0  0  0  0  0  0  0  0
   10.5199   -5.3779   22.8369 H   0  0  0  0  0  0  0  0  0  0  0  0
    7.7144   -0.8754   24.6692 H   0  0  0  0  0  0  0  0  0  0  0  0
    6.8760    0.2356   23.5741 H   0  0  0  0  0  0  0  0  0  0  0  0
    6.6187   -5.1924   22.1511 H   0  0  0  0  0  0  0  0  0  0  0  0
    7.2345   -4.6615   20.5601 H   0  0  0  0  0  0  0  0  0  0  0  0
    8.8025    1.8559   23.8153 H   0  0  0  0  0  0  0  0  0  0  0  0
    8.1356    1.3957   25.3777 H   0  0  0  0  0  0  0  0  0  0  0  0
    9.3305   -3.9514   21.3872 H   0  0  0  0  0  0  0  0  0  0  0  0
    7.3584   -3.6152   23.6520 H   0  0  0  0  0  0  0  0  0  0  0  0
    9.0774   -3.1279   23.8372 H   0  0  0  0  0  0  0  0  0  0  0  0
    7.6328   -7.0493   20.5230 H   0  0  0  0  0  0  0  0  0  0  0  0
  1  2  2  0  0  0  0
  1  3  1  0  0  0  0
  2  4  1  0  0  0  0
  3 10  2  0  0  0  0
  4 11  2  0  0  0  0
  5  6  2  0  0  0  0
  5 14  1  0  0  0  0
  6 15  1  0  0  0  0
  7 12  1  0  0  0  0
  7 15  2  0  0  0  0
  8 10  1  0  0  0  0
  8 26  2  0  0  0  0
  9 13  2  0  0  0  0
  9 26  1  0  0  0  0
 10 11  1  0  0  0  0
 11 13  1  0  0  0  0
 12 14  2  0  0  0  0
 12 24  1  6  0  0  0
 13 28  1  0  0  0  0
 14 33  1  0  0  0  0
 15 34  1  0  0  0  0
 16 19  1  0  0  0  0
 16 27  1  0  0  0  0
 16 30  2  0  0  0  0
 17 24  1  1  0  0  0
 17 28  1  0  0  0  0
 17 31  2  0  0  0  0
 18 28  1  0  0  0  0
 18 29  1  0  0  0  0
 18 32  2  0  0  0  0
 19 23  1  0  0  0  0
 20 22  1  0  0  0  0
 20 24  1  1  0  0  0
 21 23  1  0  0  0  0
 21 27  1  0  0  0  0
 22 33  1  0  0  0  0
 23 25  1  6  0  0  0
 24 29  1  6  0  0  0
 25 29  1  0  0  0  0
  1 35  1  0  0  0  0
  2 36  1  0  0  0  0
  3 37  1  0  0  0  0
  4 38  1  0  0  0  0
  5 39  1  0  0  0  0
  6 40  1  0  0  0  0
  7 41  1  0  0  0  0
  8 42  1  0  0  0  0
  9 43  1  0  0  0  0
 19 44  1  0  0  0  0
 19 45  1  0  0  0  0
 20 46  1  0  0  0  0
 20 47  1  0  0  0  0
 21 48  1  0  0  0  0
 21 49  1  0  0  0  0
 22 50  1  0  0  0  0
 22 51  1  0  0  0  0
 23 52  1  0  0  0  0
 25 53  1  0  0  0  0
 25 54  1  0  0  0  0
 27 55  1  0  0  0  0
M  END
> <scaffold>
chromane-5spiro-isoquinoline

> <compound>
VLA-UNK-f702bf1c-4

> <compound_smiles>
c1ccc2c(c1)cncc2N3C(=O)[C@@]4(CCOc5c4cc(cc5)Cl)N(C3=O)CC6CC(=O)NC6

> <enantiomer_smiles>
c1ccc2c(c1)cncc2N3C(=O)[C@@]4(CCOc5c4cc(cc5)Cl)N(C3=O)C[C@H]6CC(=O)NC6

> <clash_score>
4.189452951282551

> <docking_score>
3.4028234663852886e+38

> <overlap_score>
1.0

> <MMFF_internal_energy>
52.500534259326145

> <docked_smiles>
c1ccc2c(c1)cncc2N3C(=O)[C@@]4(CCOc5c4cc(cc5)Cl)N(C3=O)C[C@H]6CC(=O)NC6

$$$$
EDJ-MED-fed7ac0b-2_1
  -OEChem-01042202313D

 56 61  0     1  0  0  0  0  0999 V2000
    3.3444    2.6278   20.4409 C   0  0  0  0  0  0  0  0  0  0  0  0
    3.8974    1.9290   21.5048 C   0  0  0  0  0  0  0  0  0  0  0  0
    3.7877    2.4205   19.1658 C   0  0  0  0  0  0  0  0  0  0  0  0
    4.8986    1.0232   21.2985 C   0  0  0  0  0  0  0  0  0  0  0  0
   12.0781    0.0316   24.1532 C   0  0  0  0  0  0  0  0  0  0  0  0
   12.9147   -0.6032   23.2559 C   0  0  0  0  0  0  0  0  0  0  0  0
   11.0005   -1.4332   22.0435 C   0  0  0  0  0  0  0  0  0  0  0  0
    5.3288    1.2339   17.6062 C   0  0  0  0  0  0  0  0  0  0  0  0
    6.8449   -0.2893   18.3747 C   0  0  0  0  0  0  0  0  0  0  0  0
    4.8238    1.4906   18.9051 C   0  0  0  0  0  0  0  0  0  0  0  0
    5.3995    0.7732   19.9944 C   0  0  0  0  0  0  0  0  0  0  0  0
   10.7056   -0.0626   23.9890 C   0  0  0  0  0  0  0  0  0  0  0  0
   10.1421   -0.7766   22.9242 C   0  0  0  0  0  0  0  0  0  0  0  0
    6.4452   -0.1472   19.6975 C   0  0  0  0  0  0  0  0  0  0  0  0
   12.3697   -1.3298   22.2224 C   0  0  0  0  0  0  0  0  0  0  0  0
    9.9496    0.5589   24.9527 C   0  0  0  0  0  0  0  0  0  0  0  0
    8.2504    0.0168   21.4265 C   0  0  0  0  0  0  0  0  0  0  0  0
    7.2709    2.2043   26.0121 C   0  0  0  0  0  0  0  0  0  0  0  0
    7.6609    3.1196   23.6646 C   0  0  0  0  0  0  0  0  0  0  0  0
    8.8678    3.4722   24.4836 C   0  0  0  0  0  0  0  0  0  0  0  0
    8.0155   -2.1541   22.4325 C   0  0  0  0  0  0  0  0  0  0  0  0
    7.8737   -0.1194   23.8825 C   0  0  0  0  0  0  0  0  0  0  0  0
    8.6253   -0.7606   22.6923 C   0  0  3  0  0  0  0  0  0  0  0  0
    8.0961    2.2128   24.7889 C   0  0  0  0  0  0  0  0  0  0  0  0
    7.3671    1.8749   28.4748 C   0  0  0  0  0  0  0  0  0  0  0  0
    6.3072    0.3768   17.3417 N   0  0  0  0  0  0  0  0  0  0  0  0
    6.9880   -1.9367   21.3575 N   0  0  0  0  0  0  0  0  0  0  0  0
    7.2305   -0.6898   20.7785 N   0  0  0  0  0  0  0  0  0  0  0  0
    8.6625    1.0133   24.4989 N   0  0  0  0  0  0  0  0  0  0  0  0
    7.9791    1.9305   27.1667 N   0  0  0  0  0  0  0  0  0  0  0  0
   10.3234    0.7420   26.1072 O   0  0  0  0  0  0  0  0  0  0  0  0
    8.8183    1.0493   21.0814 O   0  0  0  0  0  0  0  0  0  0  0  0
    6.0692    2.4306   25.9319 O   0  0  0  0  0  0  0  0  0  0  0  0
   13.4285   -2.1360   21.1040 Cl  0  0  0  0  0  0  0  0  0  0  0  0
    2.5443    3.3508   20.6368 H   0  0  0  0  0  0  0  0  0  0  0  0
    3.5189    2.1137   22.5166 H   0  0  0  0  0  0  0  0  0  0  0  0
    3.3421    2.9744   18.3363 H   0  0  0  0  0  0  0  0  0  0  0  0
    5.3131    0.4893   22.1569 H   0  0  0  0  0  0  0  0  0  0  0  0
   12.5190    0.5974   24.9698 H   0  0  0  0  0  0  0  0  0  0  0  0
   13.9920   -0.5114   23.3735 H   0  0  0  0  0  0  0  0  0  0  0  0
   10.6074   -2.0145   21.2210 H   0  0  0  0  0  0  0  0  0  0  0  0
    4.9151    1.7511   16.7471 H   0  0  0  0  0  0  0  0  0  0  0  0
    7.6455   -0.9765   18.1038 H   0  0  0  0  0  0  0  0  0  0  0  0
    6.7703    3.7228   23.7970 H   0  0  0  0  0  0  0  0  0  0  0  0
    7.8252    2.7938   22.6441 H   0  0  0  0  0  0  0  0  0  0  0  0
    9.8391    3.3814   24.0116 H   0  0  0  0  0  0  0  0  0  0  0  0
    8.7851    4.3114   25.1643 H   0  0  0  0  0  0  0  0  0  0  0  0
    8.7461   -2.8998   22.1132 H   0  0  0  0  0  0  0  0  0  0  0  0
    7.4962   -2.5508   23.3106 H   0  0  0  0  0  0  0  0  0  0  0  0
    6.8933    0.2584   23.5950 H   0  0  0  0  0  0  0  0  0  0  0  0
    7.7299   -0.8418   24.6897 H   0  0  0  0  0  0  0  0  0  0  0  0
    7.3938    2.8734   28.9355 H   0  0  0  0  0  0  0  0  0  0  0  0
    6.3225    1.5442   28.3770 H   0  0  0  0  0  0  0  0  0  0  0  0
    7.9189    1.1644   29.1078 H   0  0  0  0  0  0  0  0  0  0  0  0
    7.1418   -2.6375   20.6243 H   0  0  0  0  0  0  0  0  0  0  0  0
    8.9776    1.7603   27.0924 H   0  0  0  0  0  0  0  0  0  0  0  0
  1  2  2  0  0  0  0
  1  3  1  0  0  0  0
  2  4  1  0  0  0  0
  3 10  2  0  0  0  0
  4 11  2  0  0  0  0
  5  6  2  0  0  0  0
  5 12  1  0  0  0  0
  6 15  1  0  0  0  0
  7 13  1  0  0  0  0
  7 15  2  0  0  0  0
  8 10  1  0  0  0  0
  8 26  2  0  0  0  0
  9 14  2  0  0  0  0
  9 26  1  0  0  0  0
 10 11  1  0  0  0  0
 11 14  1  0  0  0  0
 12 13  2  0  0  0  0
 12 16  1  0  0  0  0
 13 23  1  0  0  0  0
 14 28  1  0  0  0  0
 15 34  1  0  0  0  0
 16 29  1  0  0  0  0
 16 31  2  0  0  0  0
 17 23  1  0  0  0  0
 17 28  1  0  0  0  0
 17 32  2  0  0  0  0
 18 24  1  0  0  0  0
 18 30  1  0  0  0  0
 18 33  2  0  0  0  0
 19 20  1  0  0  0  0
 19 24  1  0  0  0  0
 20 24  1  0  0  0  0
 21 23  1  0  0  0  0
 21 27  1  0  0  0  0
 22 23  1  0  0  0  0
 22 29  1  0  0  0  0
 24 29  1  0  0  0  0
 25 30  1  0  0  0  0
 27 28  1  0  0  0  0
  1 35  1  0  0  0  0
  2 36  1  0  0  0  0
  3 37  1  0  0  0  0
  4 38  1  0  0  0  0
  5 39  1  0  0  0  0
  6 40  1  0  0  0  0
  7 41  1  0  0  0  0
  8 42  1  0  0  0  0
  9 43  1  0  0  0  0
 19 44  1  0  0  0  0
 19 45  1  0  0  0  0
 20 46  1  0  0  0  0
 20 47  1  0  0  0  0
 21 48  1  0  0  0  0
 21 49  1  0  0  0  0
 22 50  1  0  0  0  0
 22 51  1  0  0  0  0
 25 52  1  0  0  0  0
 25 53  1  0  0  0  0
 25 54  1  0  0  0  0
 27 55  1  0  0  0  0
 30 56  1  0  0  0  0
M  END
> <scaffold>
tetrahydroisoquinoline-5spiro-isoquinoline

> <compound>
EDJ-MED-fed7ac0b-2

> <compound_smiles>
CNC(=O)C1(CC1)N2CC3(CNN(C3=O)c4cncc5c4cccc5)c6cc(ccc6C2=O)Cl

> <enantiomer_smiles>
CNC(=O)C1(CC1)N2C[C@@]3(CNN(C3=O)c4cncc5c4cccc5)c6cc(ccc6C2=O)Cl

> <clash_score>
0

> <docking_score>
3.4028234663852886e+38

> <overlap_score>
0.9885633587837219

> <MMFF_internal_energy>
180.63074776652206

> <docked_smiles>
CNC(=O)C1(CC1)N2C[C@@]3(CNN(C3=O)c4cncc5c4cccc5)c6cc(ccc6C2=O)Cl

$$$$
PET-UNK-77d5678a-1_1
  -OEChem-01042202313D

 52 57  0     1  0  0  0  0  0999 V2000
    3.3444    2.6278   20.4409 C   0  0  0  0  0  0  0  0  0  0  0  0
    3.8974    1.9290   21.5048 C   0  0  0  0  0  0  0  0  0  0  0  0
    3.7877    2.4205   19.1658 C   0  0  0  0  0  0  0  0  0  0  0  0
    4.8986    1.0232   21.2985 C   0  0  0  0  0  0  0  0  0  0  0  0
   12.0781    0.0316   24.1532 C   0  0  0  0  0  0  0  0  0  0  0  0
   12.9147   -0.6032   23.2559 C   0  0  0  0  0  0  0  0  0  0  0  0
   11.0005   -1.4332   22.0435 C   0  0  0  0  0  0  0  0  0  0  0  0
    5.3288    1.2339   17.6062 C   0  0  0  0  0  0  0  0  0  0  0  0
    6.8449   -0.2893   18.3747 C   0  0  0  0  0  0  0  0  0  0  0  0
    4.8258    3.8760   24.6689 C   0  0  0  0  0  0  0  0  0  0  0  0
    4.8238    1.4906   18.9051 C   0  0  0  0  0  0  0  0  0  0  0  0
    5.3995    0.7732   19.9944 C   0  0  0  0  0  0  0  0  0  0  0  0
   10.7056   -0.0626   23.9890 C   0  0  0  0  0  0  0  0  0  0  0  0
   10.1421   -0.7766   22.9242 C   0  0  0  0  0  0  0  0  0  0  0  0
    6.4452   -0.1472   19.6975 C   0  0  0  0  0  0  0  0  0  0  0  0
   12.3697   -1.3298   22.2224 C   0  0  0  0  0  0  0  0  0  0  0  0
    6.7794    2.6048   25.0356 C   0  0  0  0  0  0  0  0  0  0  0  0
    6.9880   -1.9367   21.3575 C   0  0  0  0  0  0  0  0  0  0  0  0
    8.2504    0.0168   21.4265 C   0  0  0  0  0  0  0  0  0  0  0  0
    9.9496    0.5589   24.9527 C   0  0  0  0  0  0  0  0  0  0  0  0
    8.0155   -2.1541   22.4325 C   0  0  0  0  0  0  0  0  0  0  0  0
    7.8737   -0.1194   23.8825 C   0  0  0  0  0  0  0  0  0  0  0  0
    8.6253   -0.7606   22.6923 C   0  0  1  0  0  0  0  0  0  0  0  0
    7.8622    1.7161   25.5729 C   0  0  0  0  0  0  0  0  0  0  0  0
    6.3072    0.3768   17.3417 N   0  0  0  0  0  0  0  0  0  0  0  0
    5.6654    3.9701   23.6599 N   0  0  0  0  0  0  0  0  0  0  0  0
    6.8109    3.2236   23.8746 N   0  0  0  0  0  0  0  0  0  0  0  0
    7.2305   -0.6898   20.7785 N   0  0  0  0  0  0  0  0  0  0  0  0
    8.6625    1.0133   24.4989 N   0  3  3  0  0  0  0  0  0  0  0  0
    6.1330   -2.7667   21.0940 O   0  0  0  0  0  0  0  0  0  0  0  0
    8.7806    1.0642   21.1047 O   0  0  0  0  0  0  0  0  0  0  0  0
    5.3593    2.8780   25.9577 S   0  0  0  0  0  0  0  0  0  0  0  0
   13.4296   -2.1407   21.1086 Cl  0  0  0  0  0  0  0  0  0  0  0  0
    2.5443    3.3508   20.6368 H   0  0  0  0  0  0  0  0  0  0  0  0
    3.5189    2.1137   22.5166 H   0  0  0  0  0  0  0  0  0  0  0  0
    3.3421    2.9744   18.3363 H   0  0  0  0  0  0  0  0  0  0  0  0
    5.3131    0.4893   22.1569 H   0  0  0  0  0  0  0  0  0  0  0  0
   12.5048    0.5983   24.9727 H   0  0  0  0  0  0  0  0  0  0  0  0
   13.9929   -0.5172   23.3781 H   0  0  0  0  0  0  0  0  0  0  0  0
   10.6151   -2.0185   21.2236 H   0  0  0  0  0  0  0  0  0  0  0  0
    4.9151    1.7511   16.7471 H   0  0  0  0  0  0  0  0  0  0  0  0
    7.6455   -0.9765   18.1038 H   0  0  0  0  0  0  0  0  0  0  0  0
    3.8738    4.3876   24.6858 H   0  0  0  0  0  0  0  0  0  0  0  0
    9.7637   -0.1182   25.8275 H   0  0  0  0  0  0  0  0  0  0  0  0
   10.4581    1.4677   25.3682 H   0  0  0  0  0  0  0  0  0  0  0  0
    7.4828   -2.5426   23.3071 H   0  0  0  0  0  0  0  0  0  0  0  0
    8.7500   -2.8978   22.1147 H   0  0  0  0  0  0  0  0  0  0  0  0
    6.9081    0.3033   23.5609 H   0  0  0  0  0  0  0  0  0  0  0  0
    7.6820   -0.8477   24.6878 H   0  0  0  0  0  0  0  0  0  0  0  0
    8.5909    2.2886   26.1568 H   0  0  0  0  0  0  0  0  0  0  0  0
    7.4489    0.9389   26.2247 H   0  0  0  0  0  0  0  0  0  0  0  0
    8.7933    1.7195   23.7502 H   0  0  0  0  0  0  0  0  0  0  0  0
  1  2  2  0  0  0  0
  1  3  1  0  0  0  0
  2  4  1  0  0  0  0
  3 11  2  0  0  0  0
  4 12  2  0  0  0  0
  5  6  2  0  0  0  0
  5 13  1  0  0  0  0
  6 16  1  0  0  0  0
  7 14  1  0  0  0  0
  7 16  2  0  0  0  0
  8 11  1  0  0  0  0
  8 25  2  0  0  0  0
  9 15  2  0  0  0  0
  9 25  1  0  0  0  0
 10 26  2  0  0  0  0
 10 32  1  0  0  0  0
 11 12  1  0  0  0  0
 12 15  1  0  0  0  0
 13 14  2  0  0  0  0
 13 20  1  0  0  0  0
 14 23  1  6  0  0  0
 15 28  1  0  0  0  0
 16 33  1  0  0  0  0
 17 24  1  0  0  0  0
 17 27  2  0  0  0  0
 17 32  1  0  0  0  0
 18 21  1  0  0  0  0
 18 28  1  0  0  0  0
 18 30  2  0  0  0  0
 19 23  1  1  0  0  0
 19 28  1  0  0  0  0
 19 31  2  0  0  0  0
 20 29  1  0  0  0  0
 21 23  1  1  0  0  0
 22 23  1  6  0  0  0
 22 29  1  0  0  0  0
 24 29  1  0  0  0  0
 26 27  1  0  0  0  0
  1 34  1  0  0  0  0
  2 35  1  0  0  0  0
  3 36  1  0  0  0  0
  4 37  1  0  0  0  0
  5 38  1  0  0  0  0
  6 39  1  0  0  0  0
  7 40  1  0  0  0  0
  8 41  1  0  0  0  0
  9 42  1  0  0  0  0
 10 43  1  0  0  0  0
 20 44  1  0  0  0  0
 20 45  1  0  0  0  0
 21 46  1  0  0  0  0
 21 47  1  0  0  0  0
 22 48  1  0  0  0  0
 22 49  1  0  0  0  0
 24 50  1  0  0  0  0
 24 51  1  0  0  0  0
 29 52  1  0  0  0  0
M  CHG  1  29   1
M  END
> <scaffold>
tetrahydroisoquinoline-5spiro-isoquinoline

> <compound>
PET-UNK-77d5678a-1

> <compound_smiles>
c1ccc2c(c1)cncc2N3C(=O)C[C@@]4(C3=O)CN(Cc5c4cc(cc5)Cl)Cc6nncs6

> <enantiomer_smiles>
c1ccc2c(c1)cncc2N3C(=O)C[C@@]4(C3=O)C[N@@](Cc5c4cc(cc5)Cl)Cc6nncs6

> <clash_score>
0

> <docking_score>
3.4028234663852886e+38

> <overlap_score>
1.0

> <MMFF_internal_energy>
109.72734211087932

> <docked_smiles>
c1ccc2c(c1)cncc2N3C(=O)C[C@@]4(C3=O)C[N@H+](Cc5c4cc(cc5)Cl)Cc6nncs6

$$$$
EDJ-MED-8bb691af-2_1
  -OEChem-01042202313D

 59 64  0     1  0  0  0  0  0999 V2000
    6.6251    2.6438   28.4348 C   0  0  0  0  0  0  0  0  0  0  0  0
    3.3444    2.6278   20.4409 C   0  0  0  0  0  0  0  0  0  0  0  0
    3.8974    1.9290   21.5048 C   0  0  0  0  0  0  0  0  0  0  0  0
    3.7877    2.4205   19.1658 C   0  0  0  0  0  0  0  0  0  0  0  0
    4.8986    1.0232   21.2985 C   0  0  0  0  0  0  0  0  0  0  0  0
   12.0781    0.0316   24.1532 C   0  0  0  0  0  0  0  0  0  0  0  0
   12.9147   -0.6032   23.2559 C   0  0  0  0  0  0  0  0  0  0  0  0
   11.0005   -1.4332   22.0435 C   0  0  0  0  0  0  0  0  0  0  0  0
    5.3288    1.2339   17.6062 C   0  0  0  0  0  0  0  0  0  0  0  0
    6.8449   -0.2893   18.3747 C   0  0  0  0  0  0  0  0  0  0  0  0
    4.8238    1.4906   18.9051 C   0  0  0  0  0  0  0  0  0  0  0  0
    5.3995    0.7732   19.9944 C   0  0  0  0  0  0  0  0  0  0  0  0
   10.7056   -0.0626   23.9890 C   0  0  0  0  0  0  0  0  0  0  0  0
   10.1421   -0.7766   22.9242 C   0  0  0  0  0  0  0  0  0  0  0  0
    6.4452   -0.1472   19.6975 C   0  0  0  0  0  0  0  0  0  0  0  0
   12.3697   -1.3298   22.2224 C   0  0  0  0  0  0  0  0  0  0  0  0
    9.9496    0.5589   24.9527 C   0  0  0  0  0  0  0  0  0  0  0  0
    5.8505    0.2580   28.6868 C   0  0  0  0  0  0  0  0  0  0  0  0
    5.1132    0.8458   27.5200 C   0  0  0  0  0  0  0  0  0  0  0  0
    8.0155   -2.1541   22.4325 C   0  0  0  0  0  0  0  0  0  0  0  0
    6.9880   -1.9367   21.3575 C   0  0  0  0  0  0  0  0  0  0  0  0
    8.2504    0.0168   21.4265 C   0  0  0  0  0  0  0  0  0  0  0  0
    7.8737   -0.1194   23.8825 C   0  0  0  0  0  0  0  0  0  0  0  0
    6.5063    1.3333   27.8499 C   0  0  0  0  0  0  0  0  0  0  0  0
    8.6253   -0.7606   22.6923 C   0  0  3  0  0  0  0  0  0  0  0  0
    7.6379    0.9294   26.9315 C   0  0  0  0  0  0  0  0  0  0  0  0
    6.7208    3.6997   28.9061 N   0  0  0  0  0  0  0  0  0  0  0  0
    6.3072    0.3768   17.3417 N   0  0  0  0  0  0  0  0  0  0  0  0
    7.2305   -0.6898   20.7785 N   0  0  3  0  0  0  0  0  0  0  0  0
    8.6625    1.0133   24.4989 N   0  0  3  0  0  0  0  0  0  0  0  0
    6.4551    2.2264   24.9960 O   0  0  0  0  0  0  0  0  0  0  0  0
    8.6053    3.1495   25.9500 O   0  0  0  0  0  0  0  0  0  0  0  0
    7.7785    2.0320   25.5482 S   0  0  0  0  0  0  0  0  0  0  0  0
   13.4298   -2.1404   21.1088 Cl  0  0  0  0  0  0  0  0  0  0  0  0
    2.5445    3.3511   20.6368 H   0  0  0  0  0  0  0  0  0  0  0  0
    3.5193    2.1138   22.5167 H   0  0  0  0  0  0  0  0  0  0  0  0
    3.3422    2.9745   18.3362 H   0  0  0  0  0  0  0  0  0  0  0  0
    5.3126    0.4886   22.1566 H   0  0  0  0  0  0  0  0  0  0  0  0
   12.5046    0.5927   24.9763 H   0  0  0  0  0  0  0  0  0  0  0  0
   13.9930   -0.5211   23.3810 H   0  0  0  0  0  0  0  0  0  0  0  0
   10.6218   -2.0195   21.2233 H   0  0  0  0  0  0  0  0  0  0  0  0
    4.9147    1.7513   16.7473 H   0  0  0  0  0  0  0  0  0  0  0  0
    7.6457   -0.9763   18.1044 H   0  0  0  0  0  0  0  0  0  0  0  0
    9.7811   -0.1220   25.8232 H   0  0  0  0  0  0  0  0  0  0  0  0
   10.4790    1.4546   25.3606 H   0  0  0  0  0  0  0  0  0  0  0  0
    5.4978    0.5079   29.6811 H   0  0  0  0  0  0  0  0  0  0  0  0
    6.2078   -0.7611   28.5941 H   0  0  0  0  0  0  0  0  0  0  0  0
    4.9759    0.2199   26.6458 H   0  0  0  0  0  0  0  0  0  0  0  0
    4.2666    1.4883   27.7339 H   0  0  0  0  0  0  0  0  0  0  0  0
    7.5803   -2.6118   23.3316 H   0  0  0  0  0  0  0  0  0  0  0  0
    8.7866   -2.8442   22.0575 H   0  0  0  0  0  0  0  0  0  0  0  0
    7.0313   -2.7734   20.6124 H   0  0  0  0  0  0  0  0  0  0  0  0
    5.9540   -1.9837   21.7857 H   0  0  0  0  0  0  0  0  0  0  0  0
    7.9625    1.0723   21.6581 H   0  0  0  0  0  0  0  0  0  0  0  0
    9.1292    0.1014   20.7427 H   0  0  0  0  0  0  0  0  0  0  0  0
    6.8971    0.2771   23.5494 H   0  0  0  0  0  0  0  0  0  0  0  0
    7.6554   -0.8673   24.6684 H   0  0  0  0  0  0  0  0  0  0  0  0
    7.4759   -0.0742   26.5285 H   0  0  0  0  0  0  0  0  0  0  0  0
    8.5958    0.9494   27.4583 H   0  0  0  0  0  0  0  0  0  0  0  0
  1 24  1  0  0  0  0
  1 27  3  0  0  0  0
  2  3  2  0  0  0  0
  2  4  1  0  0  0  0
  3  5  1  0  0  0  0
  4 11  2  0  0  0  0
  5 12  2  0  0  0  0
  6  7  2  0  0  0  0
  6 13  1  0  0  0  0
  7 16  1  0  0  0  0
  8 14  1  0  0  0  0
  8 16  2  0  0  0  0
  9 11  1  0  0  0  0
  9 28  2  0  0  0  0
 10 15  2  0  0  0  0
 10 28  1  0  0  0  0
 11 12  1  0  0  0  0
 12 15  1  0  0  0  0
 13 14  2  0  0  0  0
 13 17  1  0  0  0  0
 14 25  1  0  0  0  0
 15 29  1  0  0  0  0
 16 34  1  0  0  0  0
 17 30  1  0  0  0  0
 18 19  1  0  0  0  0
 18 24  1  0  0  0  0
 19 24  1  0  0  0  0
 20 21  1  0  0  0  0
 20 25  1  0  0  0  0
 21 29  1  0  0  0  0
 22 25  1  0  0  0  0
 22 29  1  0  0  0  0
 23 25  1  0  0  0  0
 23 30  1  0  0  0  0
 24 26  1  0  0  0  0
 26 33  1  0  0  0  0
 30 33  1  0  0  0  0
 31 33  2  0  0  0  0
 32 33  2  0  0  0  0
  2 35  1  0  0  0  0
  3 36  1  0  0  0  0
  4 37  1  0  0  0  0
  5 38  1  0  0  0  0
  6 39  1  0  0  0  0
  7 40  1  0  0  0  0
  8 41  1  0  0  0  0
  9 42  1  0  0  0  0
 10 43  1  0  0  0  0
 17 44  1  0  0  0  0
 17 45  1  0  0  0  0
 18 46  1  0  0  0  0
 18 47  1  0  0  0  0
 19 48  1  0  0  0  0
 19 49  1  0  0  0  0
 20 50  1  0  0  0  0
 20 51  1  0  0  0  0
 21 52  1  0  0  0  0
 21 53  1  0  0  0  0
 22 54  1  0  0  0  0
 22 55  1  0  0  0  0
 23 56  1  0  0  0  0
 23 57  1  0  0  0  0
 26 58  1  0  0  0  0
 26 59  1  0  0  0  0
M  END
> <scaffold>
tetrahydroisoquinoline-5spiro-isoquinoline

> <compound>
EDJ-MED-8bb691af-2

> <compound_smiles>
c1ccc2c(c1)cncc2N3CCC4(C3)CN(Cc5c4cc(cc5)Cl)S(=O)(=O)CC6(CC6)C#N

> <enantiomer_smiles>
c1ccc2c(c1)cncc2N3CC[C@]4(C3)C[N@](Cc5c4cc(cc5)Cl)S(=O)(=O)CC6(CC6)C#N

> <clash_score>
0

> <docking_score>
3.4028234663852886e+38

> <overlap_score>
0.9438470602035522

> <MMFF_internal_energy>
126.90155560095813

> <docked_smiles>
c1ccc2c(c1)cncc2N3CC[C@]4(C3)C[N@](Cc5c4cc(cc5)Cl)S(=O)(=O)CC6(CC6)C#N

$$$$
MAT-POS-69786b79-1_1
  -OEChem-01042202313D

 59 64  0     1  0  0  0  0  0999 V2000
    3.3444    2.6278   20.4409 C   0  0  0  0  0  0  0  0  0  0  0  0
    3.8974    1.9290   21.5048 C   0  0  0  0  0  0  0  0  0  0  0  0
    3.7877    2.4205   19.1658 C   0  0  0  0  0  0  0  0  0  0  0  0
    4.8986    1.0232   21.2985 C   0  0  0  0  0  0  0  0  0  0  0  0
   12.0781    0.0316   24.1532 C   0  0  0  0  0  0  0  0  0  0  0  0
   12.9147   -0.6032   23.2559 C   0  0  0  0  0  0  0  0  0  0  0  0
   11.0005   -1.4332   22.0435 C   0  0  0  0  0  0  0  0  0  0  0  0
    5.3288    1.2339   17.6062 C   0  0  0  0  0  0  0  0  0  0  0  0
    6.8449   -0.2893   18.3747 C   0  0  0  0  0  0  0  0  0  0  0  0
    4.8238    1.4906   18.9051 C   0  0  0  0  0  0  0  0  0  0  0  0
    5.3995    0.7732   19.9944 C   0  0  0  0  0  0  0  0  0  0  0  0
   10.7056   -0.0626   23.9890 C   0  0  0  0  0  0  0  0  0  0  0  0
   10.1421   -0.7766   22.9242 C   0  0  0  0  0  0  0  0  0  0  0  0
    6.4452   -0.1472   19.6975 C   0  0  0  0  0  0  0  0  0  0  0  0
   12.3697   -1.3298   22.2224 C   0  0  0  0  0  0  0  0  0  0  0  0
    8.2504    0.0168   21.4265 C   0  0  0  0  0  0  0  0  0  0  0  0
    7.5608    0.8710   26.7382 C   0  0  0  0  0  0  0  0  0  0  0  0
    9.9496    0.5589   24.9527 C   0  0  0  0  0  0  0  0  0  0  0  0
    8.1483    3.1787   25.7655 C   0  0  0  0  0  0  0  0  0  0  0  0
    6.8636    2.7445   25.1193 C   0  0  0  0  0  0  0  0  0  0  0  0
    8.0155   -2.1541   22.4325 C   0  0  0  0  0  0  0  0  0  0  0  0
    6.9880   -1.9367   21.3575 C   0  0  0  0  0  0  0  0  0  0  0  0
    7.8737   -0.1194   23.8825 C   0  0  0  0  0  0  0  0  0  0  0  0
    8.6253   -0.7606   22.6923 C   0  0  3  0  0  0  0  0  0  0  0  0
    7.8612    1.7144   25.5743 C   0  0  0  0  0  0  0  0  0  0  0  0
    5.8207   -0.6003   27.7333 C   0  0  0  0  0  0  0  0  0  0  0  0
    6.3072    0.3768   17.3417 N   0  0  0  0  0  0  0  0  0  0  0  0
    7.2305   -0.6898   20.7785 N   0  0  0  0  0  0  0  0  0  0  0  0
    6.3168    0.2710   26.6922 N   0  0  0  0  0  0  0  0  0  0  0  0
    8.6625    1.0133   24.4989 N   0  3  3  0  0  0  0  0  0  0  0  0
    8.8307    1.0396   21.0789 O   0  0  0  0  0  0  0  0  0  0  0  0
    8.3913    0.7567   27.6320 O   0  0  0  0  0  0  0  0  0  0  0  0
   13.4286   -2.1418   21.1083 Cl  0  0  0  0  0  0  0  0  0  0  0  0
    2.5443    3.3508   20.6368 H   0  0  0  0  0  0  0  0  0  0  0  0
    3.5189    2.1137   22.5166 H   0  0  0  0  0  0  0  0  0  0  0  0
    3.3421    2.9744   18.3363 H   0  0  0  0  0  0  0  0  0  0  0  0
    5.3131    0.4893   22.1569 H   0  0  0  0  0  0  0  0  0  0  0  0
   12.5039    0.5971   24.9739 H   0  0  0  0  0  0  0  0  0  0  0  0
   13.9926   -0.5182   23.3786 H   0  0  0  0  0  0  0  0  0  0  0  0
   10.6057   -2.0168   21.2239 H   0  0  0  0  0  0  0  0  0  0  0  0
    4.9151    1.7511   16.7471 H   0  0  0  0  0  0  0  0  0  0  0  0
    7.6455   -0.9765   18.1038 H   0  0  0  0  0  0  0  0  0  0  0  0
    9.7630   -0.1217   25.8238 H   0  0  0  0  0  0  0  0  0  0  0  0
   10.4577    1.4662   25.3703 H   0  0  0  0  0  0  0  0  0  0  0  0
    8.8937    3.6500   25.1359 H   0  0  0  0  0  0  0  0  0  0  0  0
    8.0918    3.5915   26.7659 H   0  0  0  0  0  0  0  0  0  0  0  0
    5.9495    2.8676   25.6883 H   0  0  0  0  0  0  0  0  0  0  0  0
    6.7488    2.9247   24.0570 H   0  0  0  0  0  0  0  0  0  0  0  0
    7.5155   -2.5474   23.3318 H   0  0  0  0  0  0  0  0  0  0  0  0
    8.7618   -2.9063   22.1413 H   0  0  0  0  0  0  0  0  0  0  0  0
    7.0598   -2.7247   20.5713 H   0  0  0  0  0  0  0  0  0  0  0  0
    5.9530   -1.9960   21.7708 H   0  0  0  0  0  0  0  0  0  0  0  0
    6.8970    0.2937   23.5762 H   0  0  0  0  0  0  0  0  0  0  0  0
    7.6785   -0.8493   24.6897 H   0  0  0  0  0  0  0  0  0  0  0  0
    6.1068   -1.6387   27.5103 H   0  0  0  0  0  0  0  0  0  0  0  0
    6.2530   -0.3003   28.6992 H   0  0  0  0  0  0  0  0  0  0  0  0
    4.7244   -0.5247   27.7829 H   0  0  0  0  0  0  0  0  0  0  0  0
    5.7227    0.4509   25.8884 H   0  0  0  0  0  0  0  0  0  0  0  0
    8.7897    1.7351   23.7552 H   0  0  0  0  0  0  0  0  0  0  0  0
  1  2  2  0  0  0  0
  1  3  1  0  0  0  0
  2  4  1  0  0  0  0
  3 10  2  0  0  0  0
  4 11  2  0  0  0  0
  5  6  2  0  0  0  0
  5 12  1  0  0  0  0
  6 15  1  0  0  0  0
  7 13  1  0  0  0  0
  7 15  2  0  0  0  0
  8 10  1  0  0  0  0
  8 27  2  0  0  0  0
  9 14  2  0  0  0  0
  9 27  1  0  0  0  0
 10 11  1  0  0  0  0
 11 14  1  0  0  0  0
 12 13  2  0  0  0  0
 12 18  1  0  0  0  0
 13 24  1  0  0  0  0
 14 28  1  0  0  0  0
 15 33  1  0  0  0  0
 16 24  1  0  0  0  0
 16 28  1  0  0  0  0
 16 31  2  0  0  0  0
 17 25  1  0  0  0  0
 17 29  1  0  0  0  0
 17 32  2  0  0  0  0
 18 30  1  0  0  0  0
 19 20  1  0  0  0  0
 19 25  1  0  0  0  0
 20 25  1  0  0  0  0
 21 22  1  0  0  0  0
 21 24  1  0  0  0  0
 22 28  1  0  0  0  0
 23 24  1  0  0  0  0
 23 30  1  0  0  0  0
 25 30  1  0  0  0  0
 26 29  1  0  0  0  0
  1 34  1  0  0  0  0
  2 35  1  0  0  0  0
  3 36  1  0  0  0  0
  4 37  1  0  0  0  0
  5 38  1  0  0  0  0
  6 39  1  0  0  0  0
  7 40  1  0  0  0  0
  8 41  1  0  0  0  0
  9 42  1  0  0  0  0
 18 43  1  0  0  0  0
 18 44  1  0  0  0  0
 19 45  1  0  0  0  0
 19 46  1  0  0  0  0
 20 47  1  0  0  0  0
 20 48  1  0  0  0  0
 21 49  1  0  0  0  0
 21 50  1  0  0  0  0
 22 51  1  0  0  0  0
 22 52  1  0  0  0  0
 23 53  1  0  0  0  0
 23 54  1  0  0  0  0
 26 55  1  0  0  0  0
 26 56  1  0  0  0  0
 26 57  1  0  0  0  0
 29 58  1  0  0  0  0
 30 59  1  0  0  0  0
M  CHG  1  30   1
M  END
> <scaffold>
tetrahydroisoquinoline-5spiro-isoquinoline

> <compound>
MAT-POS-69786b79-1

> <compound_smiles>
CNC(=O)C1(CC1)N2Cc3ccc(cc3C4(C2)CCN(C4=O)c5cncc6c5cccc6)Cl

> <enantiomer_smiles>
CNC(=O)C1(CC1)[N@]2Cc3ccc(cc3[C@@]4(C2)CCN(C4=O)c5cncc6c5cccc6)Cl

> <clash_score>
0

> <docking_score>
3.4028234663852886e+38

> <overlap_score>
0.976176381111145

> <MMFF_internal_energy>
154.1560836530451

> <docked_smiles>
CNC(=O)C1(CC1)[N@H+]2Cc3ccc(cc3[C@@]4(C2)CCN(C4=O)c5cncc6c5cccc6)Cl

$$$$
MAT-POS-50a80394-5_2
  -OEChem-01042202313D

 61 65  0     1  0  0  0  0  0999 V2000
    3.3444    2.6278   20.4409 C   0  0  0  0  0  0  0  0  0  0  0  0
    3.8974    1.9290   21.5048 C   0  0  0  0  0  0  0  0  0  0  0  0
    3.7877    2.4205   19.1658 C   0  0  0  0  0  0  0  0  0  0  0  0
    4.8986    1.0232   21.2985 C   0  0  0  0  0  0  0  0  0  0  0  0
   12.0781    0.0316   24.1532 C   0  0  0  0  0  0  0  0  0  0  0  0
   12.9147   -0.6032   23.2559 C   0  0  0  0  0  0  0  0  0  0  0  0
   11.0005   -1.4332   22.0435 C   0  0  0  0  0  0  0  0  0  0  0  0
    5.3288    1.2339   17.6062 C   0  0  0  0  0  0  0  0  0  0  0  0
    6.8449   -0.2893   18.3747 C   0  0  0  0  0  0  0  0  0  0  0  0
    4.8238    1.4906   18.9051 C   0  0  0  0  0  0  0  0  0  0  0  0
    5.3995    0.7732   19.9944 C   0  0  0  0  0  0  0  0  0  0  0  0
   10.7056   -0.0626   23.9890 C   0  0  0  0  0  0  0  0  0  0  0  0
   10.1421   -0.7766   22.9242 C   0  0  0  0  0  0  0  0  0  0  0  0
    6.4452   -0.1472   19.6975 C   0  0  0  0  0  0  0  0  0  0  0  0
   12.3697   -1.3298   22.2224 C   0  0  0  0  0  0  0  0  0  0  0  0
    8.2504    0.0168   21.4265 C   0  0  0  0  0  0  0  0  0  0  0  0
    8.9714    3.4739   24.3229 C   0  0  0  0  0  0  0  0  0  0  0  0
    9.9496    0.5589   24.9527 C   0  0  0  0  0  0  0  0  0  0  0  0
    6.9880   -1.9367   21.3575 C   0  0  0  0  0  0  0  0  0  0  0  0
    7.8737   -0.1194   23.8825 C   0  0  0  0  0  0  0  0  0  0  0  0
    8.0155   -2.1541   22.4325 C   0  0  1  0  0  0  0  0  0  0  0  0
    8.6253   -0.7606   22.6923 C   0  0  3  0  0  0  0  0  0  0  0  0
    6.8196   -4.2124   23.2483 C   0  0  0  0  0  0  0  0  0  0  0  0
   10.0771    5.6801   24.1045 C   0  0  0  0  0  0  0  0  0  0  0  0
    8.7425    2.1944   23.5582 C   0  0  0  0  0  0  0  0  0  0  0  0
    7.4313   -2.9038   23.6356 C   0  0  0  0  0  0  0  0  0  0  0  0
    6.3072    0.3768   17.3417 N   0  0  0  0  0  0  0  0  0  0  0  0
    7.2305   -0.6898   20.7785 N   0  0  0  0  0  0  0  0  0  0  0  0
    9.7242    4.3786   23.5893 N   0  0  0  0  0  0  0  0  0  0  0  0
    8.6625    1.0133   24.4989 N   0  3  3  0  0  0  0  0  0  0  0  0
    8.7545    1.0948   21.1291 O   0  0  0  0  0  0  0  0  0  0  0  0
    8.5352    3.6705   25.4539 O   0  0  0  0  0  0  0  0  0  0  0  0
   13.4290   -2.1383   21.1061 Cl  0  0  0  0  0  0  0  0  0  0  0  0
    2.5443    3.3508   20.6368 H   0  0  0  0  0  0  0  0  0  0  0  0
    3.5189    2.1137   22.5166 H   0  0  0  0  0  0  0  0  0  0  0  0
    3.3421    2.9744   18.3363 H   0  0  0  0  0  0  0  0  0  0  0  0
    5.3131    0.4893   22.1569 H   0  0  0  0  0  0  0  0  0  0  0  0
   12.5039    0.5968   24.9735 H   0  0  0  0  0  0  0  0  0  0  0  0
   13.9929   -0.5171   23.3772 H   0  0  0  0  0  0  0  0  0  0  0  0
   10.6081   -2.0166   21.2238 H   0  0  0  0  0  0  0  0  0  0  0  0
    4.9151    1.7511   16.7471 H   0  0  0  0  0  0  0  0  0  0  0  0
    7.6455   -0.9765   18.1038 H   0  0  0  0  0  0  0  0  0  0  0  0
    9.7393   -0.1144   25.8245 H   0  0  0  0  0  0  0  0  0  0  0  0
   10.4789    1.4537   25.3745 H   0  0  0  0  0  0  0  0  0  0  0  0
    7.0317   -2.7463   20.5868 H   0  0  0  0  0  0  0  0  0  0  0  0
    5.9454   -1.9507   21.7618 H   0  0  0  0  0  0  0  0  0  0  0  0
    6.9093    0.3114   23.5740 H   0  0  0  0  0  0  0  0  0  0  0  0
    7.6675   -0.8456   24.6799 H   0  0  0  0  0  0  0  0  0  0  0  0
    8.7884   -2.8277   22.0130 H   0  0  0  0  0  0  0  0  0  0  0  0
    6.0226   -4.0468   22.5138 H   0  0  0  0  0  0  0  0  0  0  0  0
    6.3803   -4.7097   24.1195 H   0  0  0  0  0  0  0  0  0  0  0  0
    7.5671   -4.8723   22.7954 H   0  0  0  0  0  0  0  0  0  0  0  0
    9.3116    6.4123   23.8081 H   0  0  0  0  0  0  0  0  0  0  0  0
   10.1367    5.6360   25.2020 H   0  0  0  0  0  0  0  0  0  0  0  0
   11.0524    5.9838   23.6963 H   0  0  0  0  0  0  0  0  0  0  0  0
    9.5784    1.9986   22.8809 H   0  0  0  0  0  0  0  0  0  0  0  0
    7.8039    2.2476   22.9997 H   0  0  0  0  0  0  0  0  0  0  0  0
    8.2258   -3.0774   24.3688 H   0  0  0  0  0  0  0  0  0  0  0  0
    6.6730   -2.2766   24.1156 H   0  0  0  0  0  0  0  0  0  0  0  0
   10.0630    4.1186   22.6674 H   0  0  0  0  0  0  0  0  0  0  0  0
    8.1232    1.3531   25.3119 H   0  0  0  0  0  0  0  0  0  0  0  0
  1  2  2  0  0  0  0
  1  3  1  0  0  0  0
  2  4  1  0  0  0  0
  3 10  2  0  0  0  0
  4 11  2  0  0  0  0
  5  6  2  0  0  0  0
  5 12  1  0  0  0  0
  6 15  1  0  0  0  0
  7 13  1  0  0  0  0
  7 15  2  0  0  0  0
  8 10  1  0  0  0  0
  8 27  2  0  0  0  0
  9 14  2  0  0  0  0
  9 27  1  0  0  0  0
 10 11  1  0  0  0  0
 11 14  1  0  0  0  0
 12 13  2  0  0  0  0
 12 18  1  0  0  0  0
 13 22  1  0  0  0  0
 14 28  1  0  0  0  0
 15 33  1  0  0  0  0
 16 22  1  0  0  0  0
 16 28  1  0  0  0  0
 16 31  2  0  0  0  0
 17 25  1  0  0  0  0
 17 29  1  0  0  0  0
 17 32  2  0  0  0  0
 18 30  1  0  0  0  0
 19 21  1  0  0  0  0
 19 28  1  0  0  0  0
 20 22  1  0  0  0  0
 20 30  1  0  0  0  0
 21 22  1  0  0  0  0
 21 26  1  6  0  0  0
 23 26  1  0  0  0  0
 24 29  1  0  0  0  0
 25 30  1  0  0  0  0
  1 34  1  0  0  0  0
  2 35  1  0  0  0  0
  3 36  1  0  0  0  0
  4 37  1  0  0  0  0
  5 38  1  0  0  0  0
  6 39  1  0  0  0  0
  7 40  1  0  0  0  0
  8 41  1  0  0  0  0
  9 42  1  0  0  0  0
 18 43  1  0  0  0  0
 18 44  1  0  0  0  0
 19 45  1  0  0  0  0
 19 46  1  0  0  0  0
 20 47  1  0  0  0  0
 20 48  1  0  0  0  0
 21 49  1  0  0  0  0
 23 50  1  0  0  0  0
 23 51  1  0  0  0  0
 23 52  1  0  0  0  0
 24 53  1  0  0  0  0
 24 54  1  0  0  0  0
 24 55  1  0  0  0  0
 25 56  1  0  0  0  0
 25 57  1  0  0  0  0
 26 58  1  0  0  0  0
 26 59  1  0  0  0  0
 29 60  1  0  0  0  0
 30 61  1  0  0  0  0
M  CHG  1  30   1
M  END
> <scaffold>
tetrahydroisoquinoline-5spiro-isoquinoline

> <compound>
MAT-POS-50a80394-5

> <compound_smiles>
CCC1CN(C(=O)C12CN(Cc3c2cc(cc3)Cl)CC(=O)NC)c4cncc5c4cccc5

> <enantiomer_smiles>
CC[C@H]1CN(C(=O)[C@@]12C[N@@](Cc3c2cc(cc3)Cl)CC(=O)NC)c4cncc5c4cccc5

> <clash_score>
0.7199572543924675

> <docking_score>
3.4028234663852886e+38

> <overlap_score>
0.9870991706848145

> <MMFF_internal_energy>
165.01559207995183

> <docked_smiles>
CC[C@H]1CN(C(=O)[C@@]12C[N@@H+](Cc3c2cc(cc3)Cl)CC(=O)NC)c4cncc5c4cccc5

$$$$
PET-UNK-94036022-14_1
  -OEChem-01042202313D

 55 59  0     1  0  0  0  0  0999 V2000
    3.3444    2.6278   20.4409 C   0  0  0  0  0  0  0  0  0  0  0  0
    3.8974    1.9290   21.5048 C   0  0  0  0  0  0  0  0  0  0  0  0
    3.7877    2.4205   19.1658 C   0  0  0  0  0  0  0  0  0  0  0  0
    4.8986    1.0232   21.2985 C   0  0  0  0  0  0  0  0  0  0  0  0
   12.0781    0.0316   24.1532 C   0  0  0  0  0  0  0  0  0  0  0  0
   12.9147   -0.6032   23.2559 C   0  0  0  0  0  0  0  0  0  0  0  0
   11.0005   -1.4332   22.0435 C   0  0  0  0  0  0  0  0  0  0  0  0
    5.3288    1.2339   17.6062 C   0  0  0  0  0  0  0  0  0  0  0  0
    6.8449   -0.2893   18.3747 C   0  0  0  0  0  0  0  0  0  0  0  0
    4.8238    1.4906   18.9051 C   0  0  0  0  0  0  0  0  0  0  0  0
    5.3995    0.7732   19.9944 C   0  0  0  0  0  0  0  0  0  0  0  0
   10.7056   -0.0626   23.9890 C   0  0  0  0  0  0  0  0  0  0  0  0
   10.1421   -0.7766   22.9242 C   0  0  0  0  0  0  0  0  0  0  0  0
    6.4452   -0.1472   19.6975 C   0  0  0  0  0  0  0  0  0  0  0  0
   12.3697   -1.3298   22.2224 C   0  0  0  0  0  0  0  0  0  0  0  0
    6.9880   -1.9367   21.3575 C   0  0  0  0  0  0  0  0  0  0  0  0
    8.0155   -2.1541   22.4325 C   0  0  0  0  0  0  0  0  0  0  0  0
    8.2504    0.0168   21.4265 C   0  0  0  0  0  0  0  0  0  0  0  0
    6.1251   -2.8945   21.0479 C   0  0  0  0  0  0  0  0  0  0  0  0
    8.9488    3.4969   24.2984 C   0  0  0  0  0  0  0  0  0  0  0  0
    9.9496    0.5589   24.9527 C   0  0  0  0  0  0  0  0  0  0  0  0
    7.8737   -0.1194   23.8825 C   0  0  0  0  0  0  0  0  0  0  0  0
    8.6253   -0.7606   22.6923 C   0  0  3  0  0  0  0  0  0  0  0  0
    9.2667    5.9190   23.8863 C   0  0  0  0  0  0  0  0  0  0  0  0
    8.7403    2.1978   23.5614 C   0  0  0  0  0  0  0  0  0  0  0  0
    6.3072    0.3768   17.3417 N   0  0  0  0  0  0  0  0  0  0  0  0
    7.2305   -0.6898   20.7785 N   0  0  0  0  0  0  0  0  0  0  0  0
    9.0630    4.5669   23.4236 N   0  0  0  0  0  0  0  0  0  0  0  0
    8.6625    1.0133   24.4989 N   0  3  3  0  0  0  0  0  0  0  0  0
    8.3047   -3.1825   22.9591 O   0  0  0  0  0  0  0  0  0  0  0  0
    8.7715    1.0885   21.1184 O   0  0  0  0  0  0  0  0  0  0  0  0
    9.0061    3.5757   25.5227 O   0  0  0  0  0  0  0  0  0  0  0  0
   13.4280   -2.1425   21.1083 Cl  0  0  0  0  0  0  0  0  0  0  0  0
    2.5443    3.3508   20.6368 H   0  0  0  0  0  0  0  0  0  0  0  0
    3.5189    2.1137   22.5166 H   0  0  0  0  0  0  0  0  0  0  0  0
    3.3421    2.9744   18.3363 H   0  0  0  0  0  0  0  0  0  0  0  0
    5.3131    0.4893   22.1569 H   0  0  0  0  0  0  0  0  0  0  0  0
   12.5036    0.5919   24.9781 H   0  0  0  0  0  0  0  0  0  0  0  0
   13.9925   -0.5224   23.3814 H   0  0  0  0  0  0  0  0  0  0  0  0
   10.6064   -2.0213   21.2260 H   0  0  0  0  0  0  0  0  0  0  0  0
    4.9151    1.7511   16.7471 H   0  0  0  0  0  0  0  0  0  0  0  0
    7.6455   -0.9765   18.1038 H   0  0  0  0  0  0  0  0  0  0  0  0
    5.3841   -2.7383   20.2723 H   0  0  0  0  0  0  0  0  0  0  0  0
    6.1428   -3.8487   21.5620 H   0  0  0  0  0  0  0  0  0  0  0  0
    9.7397   -0.1155   25.8239 H   0  0  0  0  0  0  0  0  0  0  0  0
   10.4790    1.4537   25.3752 H   0  0  0  0  0  0  0  0  0  0  0  0
    6.8958    0.2983   23.5817 H   0  0  0  0  0  0  0  0  0  0  0  0
    7.6879   -0.8567   24.6830 H   0  0  0  0  0  0  0  0  0  0  0  0
    8.2927    6.4132   24.0166 H   0  0  0  0  0  0  0  0  0  0  0  0
    9.8001    5.9008   24.8481 H   0  0  0  0  0  0  0  0  0  0  0  0
    9.8631    6.4735   23.1467 H   0  0  0  0  0  0  0  0  0  0  0  0
    9.5829    1.9971   22.8938 H   0  0  0  0  0  0  0  0  0  0  0  0
    7.8048    2.2270   22.9959 H   0  0  0  0  0  0  0  0  0  0  0  0
    9.0265    4.4022   22.4217 H   0  0  0  0  0  0  0  0  0  0  0  0
    8.1095    1.3441   25.3125 H   0  0  0  0  0  0  0  0  0  0  0  0
  1  2  2  0  0  0  0
  1  3  1  0  0  0  0
  2  4  1  0  0  0  0
  3 10  2  0  0  0  0
  4 11  2  0  0  0  0
  5  6  2  0  0  0  0
  5 12  1  0  0  0  0
  6 15  1  0  0  0  0
  7 13  1  0  0  0  0
  7 15  2  0  0  0  0
  8 10  1  0  0  0  0
  8 26  2  0  0  0  0
  9 14  2  0  0  0  0
  9 26  1  0  0  0  0
 10 11  1  0  0  0  0
 11 14  1  0  0  0  0
 12 13  2  0  0  0  0
 12 21  1  0  0  0  0
 13 23  1  0  0  0  0
 14 27  1  0  0  0  0
 15 33  1  0  0  0  0
 16 17  1  0  0  0  0
 16 19  2  0  0  0  0
 16 27  1  0  0  0  0
 17 23  1  0  0  0  0
 17 30  2  0  0  0  0
 18 23  1  0  0  0  0
 18 27  1  0  0  0  0
 18 31  2  0  0  0  0
 20 25  1  0  0  0  0
 20 28  1  0  0  0  0
 20 32  2  0  0  0  0
 21 29  1  0  0  0  0
 22 23  1  0  0  0  0
 22 29  1  0  0  0  0
 24 28  1  0  0  0  0
 25 29  1  0  0  0  0
  1 34  1  0  0  0  0
  2 35  1  0  0  0  0
  3 36  1  0  0  0  0
  4 37  1  0  0  0  0
  5 38  1  0  0  0  0
  6 39  1  0  0  0  0
  7 40  1  0  0  0  0
  8 41  1  0  0  0  0
  9 42  1  0  0  0  0
 19 43  1  0  0  0  0
 19 44  1  0  0  0  0
 21 45  1  0  0  0  0
 21 46  1  0  0  0  0
 22 47  1  0  0  0  0
 22 48  1  0  0  0  0
 24 49  1  0  0  0  0
 24 50  1  0  0  0  0
 24 51  1  0  0  0  0
 25 52  1  0  0  0  0
 25 53  1  0  0  0  0
 28 54  1  0  0  0  0
 29 55  1  0  0  0  0
M  CHG  1  29   1
M  END
> <scaffold>
tetrahydroisoquinoline-5spiro-isoquinoline

> <compound>
PET-UNK-94036022-14

> <compound_smiles>
CNC(=O)CN1Cc2ccc(cc2C3(C1)C(=O)C(=C)N(C3=O)c4cncc5c4cccc5)Cl

> <enantiomer_smiles>
CNC(=O)C[N@@]1Cc2ccc(cc2[C@@]3(C1)C(=O)C(=C)N(C3=O)c4cncc5c4cccc5)Cl

> <clash_score>
0

> <docking_score>
3.4028234663852886e+38

> <overlap_score>
1.0131309032440186

> <MMFF_internal_energy>
171.083789518594

> <docked_smiles>
CNC(=O)C[N@@H+]1Cc2ccc(cc2[C@@]3(C1)C(=O)C(=C)N(C3=O)c4cncc5c4cccc5)Cl

$$$$
VLA-UNK-f702bf1c-8_1
  -OEChem-01042202313D

 53 58  0     1  0  0  0  0  0999 V2000
    3.3444    2.6278   20.4409 C   0  0  0  0  0  0  0  0  0  0  0  0
    3.8974    1.9290   21.5048 C   0  0  0  0  0  0  0  0  0  0  0  0
    3.7877    2.4205   19.1658 C   0  0  0  0  0  0  0  0  0  0  0  0
    4.8986    1.0232   21.2985 C   0  0  0  0  0  0  0  0  0  0  0  0
   12.0781    0.0316   24.1532 C   0  0  0  0  0  0  0  0  0  0  0  0
   12.9147   -0.6032   23.2559 C   0  0  0  0  0  0  0  0  0  0  0  0
   11.0005   -1.4332   22.0435 C   0  0  0  0  0  0  0  0  0  0  0  0
    5.3288    1.2339   17.6062 C   0  0  0  0  0  0  0  0  0  0  0  0
    6.8449   -0.2893   18.3747 C   0  0  0  0  0  0  0  0  0  0  0  0
    9.7472   -7.4009   23.9389 C   0  0  0  0  0  0  0  0  0  0  0  0
    4.8238    1.4906   18.9051 C   0  0  0  0  0  0  0  0  0  0  0  0
    5.3995    0.7732   19.9944 C   0  0  0  0  0  0  0  0  0  0  0  0
   10.1421   -0.7766   22.9242 C   0  0  0  0  0  0  0  0  0  0  0  0
    6.4452   -0.1472   19.6975 C   0  0  0  0  0  0  0  0  0  0  0  0
   10.7056   -0.0626   23.9890 C   0  0  0  0  0  0  0  0  0  0  0  0
   12.3697   -1.3298   22.2224 C   0  0  0  0  0  0  0  0  0  0  0  0
    8.9630   -5.7337   22.9578 C   0  0  0  0  0  0  0  0  0  0  0  0
    8.2504    0.0168   21.4265 C   0  0  0  0  0  0  0  0  0  0  0  0
    6.9880   -1.9367   21.3575 C   0  0  0  0  0  0  0  0  0  0  0  0
    7.8737   -0.1194   23.8825 C   0  0  0  0  0  0  0  0  0  0  0  0
    8.6625    1.0133   24.4989 C   0  0  0  0  0  0  0  0  0  0  0  0
    8.6253   -0.7606   22.6923 C   0  0  2  0  0  0  0  0  0  0  0  0
    8.7069   -4.4507   22.2060 C   0  0  0  0  0  0  0  0  0  0  0  0
    8.2670   -3.3056   23.1149 C   0  0  0  0  0  0  0  0  0  0  0  0
    6.3072    0.3768   17.3417 N   0  0  0  0  0  0  0  0  0  0  0  0
   10.1198   -6.2649   23.2792 N   0  0  0  0  0  0  0  0  0  0  0  0
    8.4327   -7.6061   24.0459 N   0  0  0  0  0  0  0  0  0  0  0  0
    7.9542   -6.5257   23.4104 N   0  0  0  0  0  0  0  0  0  0  0  0
    7.2305   -0.6898   20.7785 N   0  0  0  0  0  0  0  0  0  0  0  0
    8.0155   -2.1541   22.4325 N   0  0  0  0  0  0  0  0  0  0  0  0
    8.8030    1.0413   21.0842 O   0  0  0  0  0  0  0  0  0  0  0  0
    6.1158   -2.7517   21.1386 O   0  0  0  0  0  0  0  0  0  0  0  0
    9.9496    0.5589   24.9527 O   0  0  0  0  0  0  0  0  0  0  0  0
   13.4278   -2.1472   21.1115 Cl  0  0  0  0  0  0  0  0  0  0  0  0
    2.5443    3.3508   20.6368 H   0  0  0  0  0  0  0  0  0  0  0  0
    3.5189    2.1137   22.5166 H   0  0  0  0  0  0  0  0  0  0  0  0
    3.3421    2.9744   18.3363 H   0  0  0  0  0  0  0  0  0  0  0  0
    5.3131    0.4893   22.1569 H   0  0  0  0  0  0  0  0  0  0  0  0
   12.5017    0.6065   24.9715 H   0  0  0  0  0  0  0  0  0  0  0  0
   13.9924   -0.5157   23.3773 H   0  0  0  0  0  0  0  0  0  0  0  0
   10.6031   -2.0252   21.2295 H   0  0  0  0  0  0  0  0  0  0  0  0
    4.9151    1.7511   16.7471 H   0  0  0  0  0  0  0  0  0  0  0  0
    7.6455   -0.9765   18.1038 H   0  0  0  0  0  0  0  0  0  0  0  0
   10.4560   -8.1014   24.3548 H   0  0  0  0  0  0  0  0  0  0  0  0
    7.7144   -0.8754   24.6692 H   0  0  0  0  0  0  0  0  0  0  0  0
    6.8760    0.2356   23.5741 H   0  0  0  0  0  0  0  0  0  0  0  0
    8.8025    1.8559   23.8153 H   0  0  0  0  0  0  0  0  0  0  0  0
    8.1356    1.3957   25.3777 H   0  0  0  0  0  0  0  0  0  0  0  0
    7.9288   -4.6368   21.4549 H   0  0  0  0  0  0  0  0  0  0  0  0
    9.6054   -4.1637   21.6449 H   0  0  0  0  0  0  0  0  0  0  0  0
    7.3400   -3.5742   23.6312 H   0  0  0  0  0  0  0  0  0  0  0  0
    9.0249   -3.0761   23.8712 H   0  0  0  0  0  0  0  0  0  0  0  0
    6.9516   -6.4030   23.3290 H   0  0  0  0  0  0  0  0  0  0  0  0
  1  2  2  0  0  0  0
  1  3  1  0  0  0  0
  2  4  1  0  0  0  0
  3 11  2  0  0  0  0
  4 12  2  0  0  0  0
  5  6  2  0  0  0  0
  5 15  1  0  0  0  0
  6 16  1  0  0  0  0
  7 13  1  0  0  0  0
  7 16  2  0  0  0  0
  8 11  1  0  0  0  0
  8 25  2  0  0  0  0
  9 14  2  0  0  0  0
  9 25  1  0  0  0  0
 10 26  1  0  0  0  0
 10 27  2  0  0  0  0
 11 12  1  0  0  0  0
 12 14  1  0  0  0  0
 13 15  2  0  0  0  0
 13 22  1  6  0  0  0
 14 29  1  0  0  0  0
 15 33  1  0  0  0  0
 16 34  1  0  0  0  0
 17 23  1  0  0  0  0
 17 26  2  0  0  0  0
 17 28  1  0  0  0  0
 18 22  1  1  0  0  0
 18 29  1  0  0  0  0
 18 31  2  0  0  0  0
 19 29  1  0  0  0  0
 19 30  1  0  0  0  0
 19 32  2  0  0  0  0
 20 21  1  0  0  0  0
 20 22  1  1  0  0  0
 21 33  1  0  0  0  0
 22 30  1  6  0  0  0
 23 24  1  0  0  0  0
 24 30  1  0  0  0  0
 27 28  1  0  0  0  0
  1 35  1  0  0  0  0
  2 36  1  0  0  0  0
  3 37  1  0  0  0  0
  4 38  1  0  0  0  0
  5 39  1  0  0  0  0
  6 40  1  0  0  0  0
  7 41  1  0  0  0  0
  8 42  1  0  0  0  0
  9 43  1  0  0  0  0
 10 44  1  0  0  0  0
 20 45  1  0  0  0  0
 20 46  1  0  0  0  0
 21 47  1  0  0  0  0
 21 48  1  0  0  0  0
 23 49  1  0  0  0  0
 23 50  1  0  0  0  0
 24 51  1  0  0  0  0
 24 52  1  0  0  0  0
 28 53  1  0  0  0  0
M  END
> <scaffold>
chromane-5spiro-isoquinoline

> <compound>
VLA-UNK-f702bf1c-8

> <compound_smiles>
c1ccc2c(c1)cncc2N3C(=O)[C@@]4(CCOc5c4cc(cc5)Cl)N(C3=O)CCc6nc[nH]n6

> <enantiomer_smiles>
c1ccc2c(c1)cncc2N3C(=O)[C@@]4(CCOc5c4cc(cc5)Cl)N(C3=O)CCc6nc[nH]n6

> <clash_score>
4.498679208820795

> <docking_score>
3.4028234663852886e+38

> <overlap_score>
1.0

> <MMFF_internal_energy>
83.35858556847234

> <docked_smiles>
c1ccc2c(c1)cncc2N3C(=O)[C@@]4(CCOc5c4cc(cc5)Cl)N(C3=O)CCc6[nH]ncn6

$$$$
MAT-POS-576f7758-1_1
  -OEChem-01042202313D

 59 64  0     1  0  0  0  0  0999 V2000
    3.3444    2.6278   20.4409 C   0  0  0  0  0  0  0  0  0  0  0  0
    3.8974    1.9290   21.5048 C   0  0  0  0  0  0  0  0  0  0  0  0
    3.7877    2.4205   19.1658 C   0  0  0  0  0  0  0  0  0  0  0  0
    4.8986    1.0232   21.2985 C   0  0  0  0  0  0  0  0  0  0  0  0
   12.0781    0.0316   24.1532 C   0  0  0  0  0  0  0  0  0  0  0  0
   12.9147   -0.6032   23.2559 C   0  0  0  0  0  0  0  0  0  0  0  0
   11.0005   -1.4332   22.0435 C   0  0  0  0  0  0  0  0  0  0  0  0
    5.3288    1.2339   17.6062 C   0  0  0  0  0  0  0  0  0  0  0  0
    6.8449   -0.2893   18.3747 C   0  0  0  0  0  0  0  0  0  0  0  0
    4.8238    1.4906   18.9051 C   0  0  0  0  0  0  0  0  0  0  0  0
    5.3995    0.7732   19.9944 C   0  0  0  0  0  0  0  0  0  0  0  0
   10.7056   -0.0626   23.9890 C   0  0  0  0  0  0  0  0  0  0  0  0
   10.1421   -0.7766   22.9242 C   0  0  0  0  0  0  0  0  0  0  0  0
    6.4452   -0.1472   19.6975 C   0  0  0  0  0  0  0  0  0  0  0  0
   12.3697   -1.3298   22.2224 C   0  0  0  0  0  0  0  0  0  0  0  0
    8.2504    0.0168   21.4265 C   0  0  0  0  0  0  0  0  0  0  0  0
    7.5684    0.8371   26.7440 C   0  0  0  0  0  0  0  0  0  0  0  0
    9.9496    0.5589   24.9527 C   0  0  0  0  0  0  0  0  0  0  0  0
    8.1363    3.1614   25.7997 C   0  0  0  0  0  0  0  0  0  0  0  0
    6.8520    2.7270   25.1528 C   0  0  0  0  0  0  0  0  0  0  0  0
    8.0155   -2.1541   22.4325 C   0  0  0  0  0  0  0  0  0  0  0  0
    6.9880   -1.9367   21.3575 C   0  0  0  0  0  0  0  0  0  0  0  0
    7.8737   -0.1194   23.8825 C   0  0  0  0  0  0  0  0  0  0  0  0
    8.6253   -0.7606   22.6923 C   0  0  3  0  0  0  0  0  0  0  0  0
    7.8584    1.6978   25.5902 C   0  0  0  0  0  0  0  0  0  0  0  0
    5.8424   -0.6591   27.7263 C   0  0  0  0  0  0  0  0  0  0  0  0
    6.3072    0.3768   17.3417 N   0  0  0  0  0  0  0  0  0  0  0  0
    7.2305   -0.6898   20.7785 N   0  0  0  0  0  0  0  0  0  0  0  0
    6.3284    0.2292   26.6950 N   0  0  0  0  0  0  0  0  0  0  0  0
    8.6625    1.0133   24.4989 N   0  3  3  0  0  0  0  0  0  0  0  0
    8.8313    1.0392   21.0788 O   0  0  0  0  0  0  0  0  0  0  0  0
    8.4033    0.7167   27.6330 O   0  0  0  0  0  0  0  0  0  0  0  0
   13.4288   -2.1418   21.1083 Cl  0  0  0  0  0  0  0  0  0  0  0  0
    2.5443    3.3508   20.6368 H   0  0  0  0  0  0  0  0  0  0  0  0
    3.5189    2.1137   22.5166 H   0  0  0  0  0  0  0  0  0  0  0  0
    3.3421    2.9744   18.3363 H   0  0  0  0  0  0  0  0  0  0  0  0
    5.3131    0.4893   22.1569 H   0  0  0  0  0  0  0  0  0  0  0  0
   12.5039    0.5973   24.9740 H   0  0  0  0  0  0  0  0  0  0  0  0
   13.9926   -0.5185   23.3788 H   0  0  0  0  0  0  0  0  0  0  0  0
   10.6054   -2.0165   21.2238 H   0  0  0  0  0  0  0  0  0  0  0  0
    4.9151    1.7511   16.7471 H   0  0  0  0  0  0  0  0  0  0  0  0
    7.6455   -0.9765   18.1038 H   0  0  0  0  0  0  0  0  0  0  0  0
    9.7629   -0.1218   25.8243 H   0  0  0  0  0  0  0  0  0  0  0  0
   10.4577    1.4665   25.3707 H   0  0  0  0  0  0  0  0  0  0  0  0
    8.8759    3.6461   25.1734 H   0  0  0  0  0  0  0  0  0  0  0  0
    8.0809    3.5606   26.8056 H   0  0  0  0  0  0  0  0  0  0  0  0
    5.9393    2.8362   25.7269 H   0  0  0  0  0  0  0  0  0  0  0  0
    6.7317    2.9204   24.0934 H   0  0  0  0  0  0  0  0  0  0  0  0
    7.5154   -2.5475   23.3317 H   0  0  0  0  0  0  0  0  0  0  0  0
    8.7614   -2.9066   22.1413 H   0  0  0  0  0  0  0  0  0  0  0  0
    7.0601   -2.7248   20.5713 H   0  0  0  0  0  0  0  0  0  0  0  0
    5.9529   -1.9960   21.7705 H   0  0  0  0  0  0  0  0  0  0  0  0
    6.8962    0.2935   23.5770 H   0  0  0  0  0  0  0  0  0  0  0  0
    7.6789   -0.8490   24.6903 H   0  0  0  0  0  0  0  0  0  0  0  0
    6.1347   -1.6925   27.4885 H   0  0  0  0  0  0  0  0  0  0  0  0
    6.2766   -0.3690   28.6945 H   0  0  0  0  0  0  0  0  0  0  0  0
    4.7458   -0.5917   27.7813 H   0  0  0  0  0  0  0  0  0  0  0  0
    5.7299    0.4156   25.8960 H   0  0  0  0  0  0  0  0  0  0  0  0
    8.7831    1.7380   23.7672 H   0  0  0  0  0  0  0  0  0  0  0  0
  1  2  2  0  0  0  0
  1  3  1  0  0  0  0
  2  4  1  0  0  0  0
  3 10  2  0  0  0  0
  4 11  2  0  0  0  0
  5  6  2  0  0  0  0
  5 12  1  0  0  0  0
  6 15  1  0  0  0  0
  7 13  1  0  0  0  0
  7 15  2  0  0  0  0
  8 10  1  0  0  0  0
  8 27  2  0  0  0  0
  9 14  2  0  0  0  0
  9 27  1  0  0  0  0
 10 11  1  0  0  0  0
 11 14  1  0  0  0  0
 12 13  2  0  0  0  0
 12 18  1  0  0  0  0
 13 24  1  0  0  0  0
 14 28  1  0  0  0  0
 15 33  1  0  0  0  0
 16 24  1  0  0  0  0
 16 28  1  0  0  0  0
 16 31  2  0  0  0  0
 17 25  1  0  0  0  0
 17 29  1  0  0  0  0
 17 32  2  0  0  0  0
 18 30  1  0  0  0  0
 19 20  1  0  0  0  0
 19 25  1  0  0  0  0
 20 25  1  0  0  0  0
 21 22  1  0  0  0  0
 21 24  1  0  0  0  0
 22 28  1  0  0  0  0
 23 24  1  0  0  0  0
 23 30  1  0  0  0  0
 25 30  1  0  0  0  0
 26 29  1  0  0  0  0
  1 34  1  0  0  0  0
  2 35  1  0  0  0  0
  3 36  1  0  0  0  0
  4 37  1  0  0  0  0
  5 38  1  0  0  0  0
  6 39  1  0  0  0  0
  7 40  1  0  0  0  0
  8 41  1  0  0  0  0
  9 42  1  0  0  0  0
 18 43  1  0  0  0  0
 18 44  1  0  0  0  0
 19 45  1  0  0  0  0
 19 46  1  0  0  0  0
 20 47  1  0  0  0  0
 20 48  1  0  0  0  0
 21 49  1  0  0  0  0
 21 50  1  0  0  0  0
 22 51  1  0  0  0  0
 22 52  1  0  0  0  0
 23 53  1  0  0  0  0
 23 54  1  0  0  0  0
 26 55  1  0  0  0  0
 26 56  1  0  0  0  0
 26 57  1  0  0  0  0
 29 58  1  0  0  0  0
 30 59  1  0  0  0  0
M  CHG  1  30   1
M  END
> <scaffold>
tetrahydroisoquinoline-5spiro-isoquinoline

> <compound>
MAT-POS-576f7758-1

> <compound_smiles>
CNC(=O)C1(CC1)N2Cc3ccc(cc3C4(C2)CCN(C4=O)c5cncc6c5cccc6)Cl

> <enantiomer_smiles>
CNC(=O)C1(CC1)[N@]2Cc3ccc(cc3[C@@]4(C2)CCN(C4=O)c5cncc6c5cccc6)Cl

> <clash_score>
0

> <docking_score>
3.4028234663852886e+38

> <overlap_score>
0.9761333465576172

> <MMFF_internal_energy>
154.43039542160346

> <docked_smiles>
CNC(=O)C1(CC1)[N@H+]2Cc3ccc(cc3[C@@]4(C2)CCN(C4=O)c5cncc6c5cccc6)Cl

$$$$
EDJ-MED-fd8ed875-4_1
  -OEChem-01042202313D

 55 60  0     1  0  0  0  0  0999 V2000
    3.3444    2.6278   20.4409 C   0  0  0  0  0  0  0  0  0  0  0  0
    3.8974    1.9290   21.5048 C   0  0  0  0  0  0  0  0  0  0  0  0
    3.7877    2.4205   19.1658 C   0  0  0  0  0  0  0  0  0  0  0  0
    4.8986    1.0232   21.2985 C   0  0  0  0  0  0  0  0  0  0  0  0
   12.0781    0.0316   24.1532 C   0  0  0  0  0  0  0  0  0  0  0  0
   12.9147   -0.6032   23.2559 C   0  0  0  0  0  0  0  0  0  0  0  0
   11.0005   -1.4332   22.0435 C   0  0  0  0  0  0  0  0  0  0  0  0
    5.3288    1.2339   17.6062 C   0  0  0  0  0  0  0  0  0  0  0  0
    6.8449   -0.2893   18.3747 C   0  0  0  0  0  0  0  0  0  0  0  0
    4.8238    1.4906   18.9051 C   0  0  0  0  0  0  0  0  0  0  0  0
    5.3995    0.7732   19.9944 C   0  0  0  0  0  0  0  0  0  0  0  0
   10.7056   -0.0626   23.9890 C   0  0  0  0  0  0  0  0  0  0  0  0
   10.1421   -0.7766   22.9242 C   0  0  0  0  0  0  0  0  0  0  0  0
    6.4452   -0.1472   19.6975 C   0  0  0  0  0  0  0  0  0  0  0  0
   12.3697   -1.3298   22.2224 C   0  0  0  0  0  0  0  0  0  0  0  0
    8.0155   -2.1541   22.4325 C   0  0  0  0  0  0  0  0  0  0  0  0
    6.9880   -1.9367   21.3575 C   0  0  0  0  0  0  0  0  0  0  0  0
    9.9496    0.5589   24.9527 C   0  0  0  0  0  0  0  0  0  0  0  0
    8.2504    0.0168   21.4265 C   0  0  0  0  0  0  0  0  0  0  0  0
    7.2700    2.2046   26.0132 C   0  0  0  0  0  0  0  0  0  0  0  0
    7.6622    3.1189   23.6657 C   0  0  0  0  0  0  0  0  0  0  0  0
    8.8688    3.4711   24.4854 C   0  0  0  0  0  0  0  0  0  0  0  0
    7.8737   -0.1194   23.8825 C   0  0  0  0  0  0  0  0  0  0  0  0
    8.6253   -0.7606   22.6923 C   0  0  3  0  0  0  0  0  0  0  0  0
    8.0961    2.2122   24.7906 C   0  0  0  0  0  0  0  0  0  0  0  0
    7.3643    1.8760   28.4761 C   0  0  0  0  0  0  0  0  0  0  0  0
    6.3072    0.3768   17.3417 N   0  0  0  0  0  0  0  0  0  0  0  0
    7.2305   -0.6898   20.7785 N   0  0  0  0  0  0  0  0  0  0  0  0
    8.6625    1.0133   24.4989 N   0  0  0  0  0  0  0  0  0  0  0  0
    7.9773    1.9308   27.1683 N   0  0  0  0  0  0  0  0  0  0  0  0
   10.3227    0.7405   26.1075 O   0  0  0  0  0  0  0  0  0  0  0  0
    8.8039    1.0694   21.1130 O   0  0  0  0  0  0  0  0  0  0  0  0
    6.0686    2.4317   25.9320 O   0  0  0  0  0  0  0  0  0  0  0  0
   13.4288   -2.1365   21.1048 Cl  0  0  0  0  0  0  0  0  0  0  0  0
    2.5443    3.3508   20.6368 H   0  0  0  0  0  0  0  0  0  0  0  0
    3.5189    2.1137   22.5166 H   0  0  0  0  0  0  0  0  0  0  0  0
    3.3421    2.9744   18.3363 H   0  0  0  0  0  0  0  0  0  0  0  0
    5.3131    0.4893   22.1569 H   0  0  0  0  0  0  0  0  0  0  0  0
   12.5190    0.5959   24.9708 H   0  0  0  0  0  0  0  0  0  0  0  0
   13.9919   -0.5124   23.3744 H   0  0  0  0  0  0  0  0  0  0  0  0
   10.6096   -2.0173   21.2216 H   0  0  0  0  0  0  0  0  0  0  0  0
    4.9151    1.7511   16.7471 H   0  0  0  0  0  0  0  0  0  0  0  0
    7.6455   -0.9765   18.1038 H   0  0  0  0  0  0  0  0  0  0  0  0
    8.2091   -3.0445   22.8410 H   0  0  0  0  0  0  0  0  0  0  0  0
    6.2543   -2.5920   21.1072 H   0  0  0  0  0  0  0  0  0  0  0  0
    6.7720    3.7227   23.7972 H   0  0  0  0  0  0  0  0  0  0  0  0
    7.8271    2.7926   22.6454 H   0  0  0  0  0  0  0  0  0  0  0  0
    9.8404    3.3794   24.0141 H   0  0  0  0  0  0  0  0  0  0  0  0
    8.7861    4.3105   25.1658 H   0  0  0  0  0  0  0  0  0  0  0  0
    6.8964    0.2580   23.5832 H   0  0  0  0  0  0  0  0  0  0  0  0
    7.7256   -0.8409   24.6884 H   0  0  0  0  0  0  0  0  0  0  0  0
    7.3913    2.8747   28.9364 H   0  0  0  0  0  0  0  0  0  0  0  0
    6.3196    1.5459   28.3776 H   0  0  0  0  0  0  0  0  0  0  0  0
    7.9152    1.1654   29.1096 H   0  0  0  0  0  0  0  0  0  0  0  0
    8.9757    1.7599   27.0949 H   0  0  0  0  0  0  0  0  0  0  0  0
  1  2  2  0  0  0  0
  1  3  1  0  0  0  0
  2  4  1  0  0  0  0
  3 10  2  0  0  0  0
  4 11  2  0  0  0  0
  5  6  2  0  0  0  0
  5 12  1  0  0  0  0
  6 15  1  0  0  0  0
  7 13  1  0  0  0  0
  7 15  2  0  0  0  0
  8 10  1  0  0  0  0
  8 27  2  0  0  0  0
  9 14  2  0  0  0  0
  9 27  1  0  0  0  0
 10 11  1  0  0  0  0
 11 14  1  0  0  0  0
 12 13  2  0  0  0  0
 12 18  1  0  0  0  0
 13 24  1  0  0  0  0
 14 28  1  0  0  0  0
 15 34  1  0  0  0  0
 16 17  2  0  0  0  0
 16 24  1  0  0  0  0
 17 28  1  0  0  0  0
 18 29  1  0  0  0  0
 18 31  2  0  0  0  0
 19 24  1  0  0  0  0
 19 28  1  0  0  0  0
 19 32  2  0  0  0  0
 20 25  1  0  0  0  0
 20 30  1  0  0  0  0
 20 33  2  0  0  0  0
 21 22  1  0  0  0  0
 21 25  1  0  0  0  0
 22 25  1  0  0  0  0
 23 24  1  0  0  0  0
 23 29  1  0  0  0  0
 25 29  1  0  0  0  0
 26 30  1  0  0  0  0
  1 35  1  0  0  0  0
  2 36  1  0  0  0  0
  3 37  1  0  0  0  0
  4 38  1  0  0  0  0
  5 39  1  0  0  0  0
  6 40  1  0  0  0  0
  7 41  1  0  0  0  0
  8 42  1  0  0  0  0
  9 43  1  0  0  0  0
 16 44  1  0  0  0  0
 17 45  1  0  0  0  0
 21 46  1  0  0  0  0
 21 47  1  0  0  0  0
 22 48  1  0  0  0  0
 22 49  1  0  0  0  0
 23 50  1  0  0  0  0
 23 51  1  0  0  0  0
 26 52  1  0  0  0  0
 26 53  1  0  0  0  0
 26 54  1  0  0  0  0
 30 55  1  0  0  0  0
M  END
> <scaffold>
tetrahydroisoquinoline-5spiro-isoquinoline

> <compound>
EDJ-MED-fd8ed875-4

> <compound_smiles>
CNC(=O)C1(CC1)N2CC3(C=CN(C3=O)c4cncc5c4cccc5)c6cc(ccc6C2=O)Cl

> <enantiomer_smiles>
CNC(=O)C1(CC1)N2C[C@@]3(C=CN(C3=O)c4cncc5c4cccc5)c6cc(ccc6C2=O)Cl

> <clash_score>
0

> <docking_score>
3.4028234663852886e+38

> <overlap_score>
0.9885445833206177

> <MMFF_internal_energy>
197.1122506974823

> <docked_smiles>
CNC(=O)C1(CC1)N2C[C@@]3(C=CN(C3=O)c4cncc5c4cccc5)c6cc(ccc6C2=O)Cl

$$$$
MAT-POS-e48723dc-1_1
  -OEChem-01042202313D

 57 62  0     1  0  0  0  0  0999 V2000
    3.3444    2.6278   20.4409 C   0  0  0  0  0  0  0  0  0  0  0  0
    3.8974    1.9290   21.5048 C   0  0  0  0  0  0  0  0  0  0  0  0
    3.7877    2.4205   19.1658 C   0  0  0  0  0  0  0  0  0  0  0  0
    4.8986    1.0232   21.2985 C   0  0  0  0  0  0  0  0  0  0  0  0
   12.0781    0.0316   24.1532 C   0  0  0  0  0  0  0  0  0  0  0  0
   12.9147   -0.6032   23.2559 C   0  0  0  0  0  0  0  0  0  0  0  0
   11.0005   -1.4332   22.0435 C   0  0  0  0  0  0  0  0  0  0  0  0
    5.3288    1.2339   17.6062 C   0  0  0  0  0  0  0  0  0  0  0  0
    6.8449   -0.2893   18.3747 C   0  0  0  0  0  0  0  0  0  0  0  0
    4.8238    1.4906   18.9051 C   0  0  0  0  0  0  0  0  0  0  0  0
    5.3995    0.7732   19.9944 C   0  0  0  0  0  0  0  0  0  0  0  0
   10.7056   -0.0626   23.9890 C   0  0  0  0  0  0  0  0  0  0  0  0
   10.1421   -0.7766   22.9242 C   0  0  0  0  0  0  0  0  0  0  0  0
    6.4452   -0.1472   19.6975 C   0  0  0  0  0  0  0  0  0  0  0  0
   12.3697   -1.3298   22.2224 C   0  0  0  0  0  0  0  0  0  0  0  0
    9.9496    0.5589   24.9527 C   0  0  0  0  0  0  0  0  0  0  0  0
    8.2504    0.0168   21.4265 C   0  0  0  0  0  0  0  0  0  0  0  0
    7.2743    2.2339   25.9911 C   0  0  0  0  0  0  0  0  0  0  0  0
    7.6484    3.1063   23.6248 C   0  0  0  0  0  0  0  0  0  0  0  0
    8.8572    3.4809   24.4312 C   0  0  0  0  0  0  0  0  0  0  0  0
    8.0155   -2.1541   22.4325 C   0  0  0  0  0  0  0  0  0  0  0  0
    6.9880   -1.9367   21.3575 C   0  0  0  0  0  0  0  0  0  0  0  0
    7.8737   -0.1194   23.8825 C   0  0  0  0  0  0  0  0  0  0  0  0
    8.6253   -0.7606   22.6923 C   0  0  1  0  0  0  0  0  0  0  0  0
    8.0937    2.2235   24.7641 C   0  0  0  0  0  0  0  0  0  0  0  0
    7.3837    1.9520   28.4592 C   0  0  0  0  0  0  0  0  0  0  0  0
    6.3072    0.3768   17.3417 N   0  0  0  0  0  0  0  0  0  0  0  0
    7.2305   -0.6898   20.7785 N   0  0  0  0  0  0  0  0  0  0  0  0
    8.6625    1.0133   24.4989 N   0  0  0  0  0  0  0  0  0  0  0  0
    7.9894    1.9860   27.1473 N   0  0  0  0  0  0  0  0  0  0  0  0
   10.3233    0.7301   26.1084 O   0  0  0  0  0  0  0  0  0  0  0  0
    8.8205    1.0412   21.0776 O   0  0  0  0  0  0  0  0  0  0  0  0
    6.0711    2.4522   25.9123 O   0  0  0  0  0  0  0  0  0  0  0  0
   13.4287   -2.1467   21.1125 Cl  0  0  0  0  0  0  0  0  0  0  0  0
    2.5443    3.3508   20.6368 H   0  0  0  0  0  0  0  0  0  0  0  0
    3.5189    2.1137   22.5166 H   0  0  0  0  0  0  0  0  0  0  0  0
    3.3421    2.9744   18.3363 H   0  0  0  0  0  0  0  0  0  0  0  0
    5.3131    0.4893   22.1569 H   0  0  0  0  0  0  0  0  0  0  0  0
   12.5188    0.5959   24.9712 H   0  0  0  0  0  0  0  0  0  0  0  0
   13.9920   -0.5225   23.3819 H   0  0  0  0  0  0  0  0  0  0  0  0
   10.6143   -2.0253   21.2265 H   0  0  0  0  0  0  0  0  0  0  0  0
    4.9151    1.7511   16.7471 H   0  0  0  0  0  0  0  0  0  0  0  0
    7.6455   -0.9765   18.1038 H   0  0  0  0  0  0  0  0  0  0  0  0
    6.7552    3.7072   23.7499 H   0  0  0  0  0  0  0  0  0  0  0  0
    7.8098    2.7620   22.6100 H   0  0  0  0  0  0  0  0  0  0  0  0
    9.8268    3.3863   23.9564 H   0  0  0  0  0  0  0  0  0  0  0  0
    8.7731    4.3325   25.0962 H   0  0  0  0  0  0  0  0  0  0  0  0
    7.5125   -2.5270   23.3387 H   0  0  0  0  0  0  0  0  0  0  0  0
    8.7589   -2.9107   22.1432 H   0  0  0  0  0  0  0  0  0  0  0  0
    7.0600   -2.7259   20.5720 H   0  0  0  0  0  0  0  0  0  0  0  0
    5.9527   -1.9961   21.7709 H   0  0  0  0  0  0  0  0  0  0  0  0
    6.9276    0.3247   23.5633 H   0  0  0  0  0  0  0  0  0  0  0  0
    7.6527   -0.8545   24.6567 H   0  0  0  0  0  0  0  0  0  0  0  0
    7.4071    2.9593   28.9006 H   0  0  0  0  0  0  0  0  0  0  0  0
    6.3405    1.6140   28.3726 H   0  0  0  0  0  0  0  0  0  0  0  0
    7.9423    1.2567   29.1029 H   0  0  0  0  0  0  0  0  0  0  0  0
    8.9884    1.8197   27.0716 H   0  0  0  0  0  0  0  0  0  0  0  0
  1  2  2  0  0  0  0
  1  3  1  0  0  0  0
  2  4  1  0  0  0  0
  3 10  2  0  0  0  0
  4 11  2  0  0  0  0
  5  6  2  0  0  0  0
  5 12  1  0  0  0  0
  6 15  1  0  0  0  0
  7 13  1  0  0  0  0
  7 15  2  0  0  0  0
  8 10  1  0  0  0  0
  8 27  2  0  0  0  0
  9 14  2  0  0  0  0
  9 27  1  0  0  0  0
 10 11  1  0  0  0  0
 11 14  1  0  0  0  0
 12 13  2  0  0  0  0
 12 16  1  0  0  0  0
 13 24  1  1  0  0  0
 14 28  1  0  0  0  0
 15 34  1  0  0  0  0
 16 29  1  0  0  0  0
 16 31  2  0  0  0  0
 17 24  1  1  0  0  0
 17 28  1  0  0  0  0
 17 32  2  0  0  0  0
 18 25  1  0  0  0  0
 18 30  1  0  0  0  0
 18 33  2  0  0  0  0
 19 20  1  0  0  0  0
 19 25  1  0  0  0  0
 20 25  1  0  0  0  0
 21 22  1  0  0  0  0
 21 24  1  6  0  0  0
 22 28  1  0  0  0  0
 23 24  1  6  0  0  0
 23 29  1  0  0  0  0
 25 29  1  0  0  0  0
 26 30  1  0  0  0  0
  1 35  1  0  0  0  0
  2 36  1  0  0  0  0
  3 37  1  0  0  0  0
  4 38  1  0  0  0  0
  5 39  1  0  0  0  0
  6 40  1  0  0  0  0
  7 41  1  0  0  0  0
  8 42  1  0  0  0  0
  9 43  1  0  0  0  0
 19 44  1  0  0  0  0
 19 45  1  0  0  0  0
 20 46  1  0  0  0  0
 20 47  1  0  0  0  0
 21 48  1  0  0  0  0
 21 49  1  0  0  0  0
 22 50  1  0  0  0  0
 22 51  1  0  0  0  0
 23 52  1  0  0  0  0
 23 53  1  0  0  0  0
 26 54  1  0  0  0  0
 26 55  1  0  0  0  0
 26 56  1  0  0  0  0
 30 57  1  0  0  0  0
M  END
> <scaffold>
tetrahydroisoquinoline-5spiro-isoquinoline

> <compound>
MAT-POS-e48723dc-1

> <compound_smiles>
CNC(=O)C1(CC1)N2C[C@]3(CCN(C3=O)c4cncc5c4cccc5)c6cc(ccc6C2=O)Cl

> <enantiomer_smiles>
CNC(=O)C1(CC1)N2C[C@]3(CCN(C3=O)c4cncc5c4cccc5)c6cc(ccc6C2=O)Cl

> <clash_score>
0

> <docking_score>
3.4028234663852886e+38

> <overlap_score>
0.9885486960411072

> <MMFF_internal_energy>
145.3969363083449

> <docked_smiles>
CNC(=O)C1(CC1)N2C[C@]3(CCN(C3=O)c4cncc5c4cccc5)c6cc(ccc6C2=O)Cl

$$$$
PET-UNK-77d5678a-5_1
  -OEChem-01042202313D

 50 55  0     1  0  0  0  0  0999 V2000
    3.3444    2.6278   20.4409 C   0  0  0  0  0  0  0  0  0  0  0  0
    3.8974    1.9290   21.5048 C   0  0  0  0  0  0  0  0  0  0  0  0
    3.7877    2.4205   19.1658 C   0  0  0  0  0  0  0  0  0  0  0  0
    4.8986    1.0232   21.2985 C   0  0  0  0  0  0  0  0  0  0  0  0
   12.0781    0.0316   24.1532 C   0  0  0  0  0  0  0  0  0  0  0  0
   12.9147   -0.6032   23.2559 C   0  0  0  0  0  0  0  0  0  0  0  0
   11.0005   -1.4332   22.0435 C   0  0  0  0  0  0  0  0  0  0  0  0
    5.3288    1.2339   17.6062 C   0  0  0  0  0  0  0  0  0  0  0  0
    6.8449   -0.2893   18.3747 C   0  0  0  0  0  0  0  0  0  0  0  0
    6.4399    2.8684   27.8425 C   0  0  0  0  0  0  0  0  0  0  0  0
    4.8238    1.4906   18.9051 C   0  0  0  0  0  0  0  0  0  0  0  0
    5.3995    0.7732   19.9944 C   0  0  0  0  0  0  0  0  0  0  0  0
   10.7056   -0.0626   23.9890 C   0  0  0  0  0  0  0  0  0  0  0  0
   10.1421   -0.7766   22.9242 C   0  0  0  0  0  0  0  0  0  0  0  0
    6.4452   -0.1472   19.6975 C   0  0  0  0  0  0  0  0  0  0  0  0
   12.3697   -1.3298   22.2224 C   0  0  0  0  0  0  0  0  0  0  0  0
    7.2893    2.1435   26.0623 C   0  0  0  0  0  0  0  0  0  0  0  0
    9.9496    0.5589   24.9527 C   0  0  0  0  0  0  0  0  0  0  0  0
    6.9880   -1.9367   21.3575 C   0  0  0  0  0  0  0  0  0  0  0  0
    8.2504    0.0168   21.4265 C   0  0  0  0  0  0  0  0  0  0  0  0
    8.0155   -2.1541   22.4325 C   0  0  0  0  0  0  0  0  0  0  0  0
    7.8737   -0.1194   23.8825 C   0  0  0  0  0  0  0  0  0  0  0  0
    8.6253   -0.7606   22.6923 C   0  0  3  0  0  0  0  0  0  0  0  0
    8.0823    2.2144   24.7894 C   0  0  0  0  0  0  0  0  0  0  0  0
    6.3072    0.3768   17.3417 N   0  0  0  0  0  0  0  0  0  0  0  0
    6.0892    1.6060   27.7648 N   0  0  0  0  0  0  0  0  0  0  0  0
    6.6481    1.1291   26.5938 N   0  0  0  0  0  0  0  0  0  0  0  0
    7.2305   -0.6898   20.7785 N   0  0  0  0  0  0  0  0  0  0  0  0
    8.6625    1.0133   24.4989 N   0  0  0  0  0  0  0  0  0  0  0  0
   10.3273    0.7360   26.1061 O   0  0  0  0  0  0  0  0  0  0  0  0
    6.1283   -2.7644   21.0979 O   0  0  0  0  0  0  0  0  0  0  0  0
    8.7920    1.0603   21.1002 O   0  0  0  0  0  0  0  0  0  0  0  0
    7.2047    3.2863   26.7969 O   0  0  0  0  0  0  0  0  0  0  0  0
   13.4283   -2.1312   21.1004 Cl  0  0  0  0  0  0  0  0  0  0  0  0
    2.5443    3.3508   20.6368 H   0  0  0  0  0  0  0  0  0  0  0  0
    3.5189    2.1137   22.5166 H   0  0  0  0  0  0  0  0  0  0  0  0
    3.3421    2.9744   18.3363 H   0  0  0  0  0  0  0  0  0  0  0  0
    5.3131    0.4893   22.1569 H   0  0  0  0  0  0  0  0  0  0  0  0
   12.5198    0.5961   24.9699 H   0  0  0  0  0  0  0  0  0  0  0  0
   13.9920   -0.5097   23.3723 H   0  0  0  0  0  0  0  0  0  0  0  0
   10.6069   -2.0138   21.2208 H   0  0  0  0  0  0  0  0  0  0  0  0
    4.9151    1.7511   16.7471 H   0  0  0  0  0  0  0  0  0  0  0  0
    7.6455   -0.9765   18.1038 H   0  0  0  0  0  0  0  0  0  0  0  0
    6.2062    3.5938   28.6058 H   0  0  0  0  0  0  0  0  0  0  0  0
    7.4972   -2.5593   23.3105 H   0  0  0  0  0  0  0  0  0  0  0  0
    8.7600   -2.8848   22.0982 H   0  0  0  0  0  0  0  0  0  0  0  0
    6.9062    0.2736   23.5772 H   0  0  0  0  0  0  0  0  0  0  0  0
    7.7145   -0.8339   24.6899 H   0  0  0  0  0  0  0  0  0  0  0  0
    7.4394    2.4993   23.9494 H   0  0  0  0  0  0  0  0  0  0  0  0
    8.8752    2.9663   24.8616 H   0  0  0  0  0  0  0  0  0  0  0  0
  1  2  2  0  0  0  0
  1  3  1  0  0  0  0
  2  4  1  0  0  0  0
  3 11  2  0  0  0  0
  4 12  2  0  0  0  0
  5  6  2  0  0  0  0
  5 13  1  0  0  0  0
  6 16  1  0  0  0  0
  7 14  1  0  0  0  0
  7 16  2  0  0  0  0
  8 11  1  0  0  0  0
  8 25  2  0  0  0  0
  9 15  2  0  0  0  0
  9 25  1  0  0  0  0
 10 26  2  0  0  0  0
 10 33  1  0  0  0  0
 11 12  1  0  0  0  0
 12 15  1  0  0  0  0
 13 14  2  0  0  0  0
 13 18  1  0  0  0  0
 14 23  1  0  0  0  0
 15 28  1  0  0  0  0
 16 34  1  0  0  0  0
 17 24  1  0  0  0  0
 17 27  2  0  0  0  0
 17 33  1  0  0  0  0
 18 29  1  0  0  0  0
 18 30  2  0  0  0  0
 19 21  1  0  0  0  0
 19 28  1  0  0  0  0
 19 31  2  0  0  0  0
 20 23  1  0  0  0  0
 20 28  1  0  0  0  0
 20 32  2  0  0  0  0
 21 23  1  0  0  0  0
 22 23  1  0  0  0  0
 22 29  1  0  0  0  0
 24 29  1  0  0  0  0
 26 27  1  0  0  0  0
  1 35  1  0  0  0  0
  2 36  1  0  0  0  0
  3 37  1  0  0  0  0
  4 38  1  0  0  0  0
  5 39  1  0  0  0  0
  6 40  1  0  0  0  0
  7 41  1  0  0  0  0
  8 42  1  0  0  0  0
  9 43  1  0  0  0  0
 10 44  1  0  0  0  0
 21 45  1  0  0  0  0
 21 46  1  0  0  0  0
 22 47  1  0  0  0  0
 22 48  1  0  0  0  0
 24 49  1  0  0  0  0
 24 50  1  0  0  0  0
M  END
> <scaffold>
tetrahydroisoquinoline-5spiro-isoquinoline

> <compound>
PET-UNK-77d5678a-5

> <compound_smiles>
c1ccc2c(c1)cncc2N3C(=O)CC4(C3=O)CN(C(=O)c5c4cc(cc5)Cl)Cc6nnco6

> <enantiomer_smiles>
c1ccc2c(c1)cncc2N3C(=O)C[C@]4(C3=O)CN(C(=O)c5c4cc(cc5)Cl)Cc6nnco6

> <clash_score>
0

> <docking_score>
3.4028234663852886e+38

> <overlap_score>
1.0116173028945923

> <MMFF_internal_energy>
128.55852006693857

> <docked_smiles>
c1ccc2c(c1)cncc2N3C(=O)C[C@]4(C3=O)CN(C(=O)c5c4cc(cc5)Cl)Cc6nnco6

$$$$
MAT-POS-e48723dc-2_1
  -OEChem-01042202313D

 57 62  0     1  0  0  0  0  0999 V2000
    3.3444    2.6278   20.4409 C   0  0  0  0  0  0  0  0  0  0  0  0
    3.8974    1.9290   21.5048 C   0  0  0  0  0  0  0  0  0  0  0  0
    3.7877    2.4205   19.1658 C   0  0  0  0  0  0  0  0  0  0  0  0
    4.8986    1.0232   21.2985 C   0  0  0  0  0  0  0  0  0  0  0  0
   12.0781    0.0316   24.1532 C   0  0  0  0  0  0  0  0  0  0  0  0
   12.9147   -0.6032   23.2559 C   0  0  0  0  0  0  0  0  0  0  0  0
   11.0005   -1.4332   22.0435 C   0  0  0  0  0  0  0  0  0  0  0  0
    5.3288    1.2339   17.6062 C   0  0  0  0  0  0  0  0  0  0  0  0
    6.8449   -0.2893   18.3747 C   0  0  0  0  0  0  0  0  0  0  0  0
    4.8238    1.4906   18.9051 C   0  0  0  0  0  0  0  0  0  0  0  0
    5.3995    0.7732   19.9944 C   0  0  0  0  0  0  0  0  0  0  0  0
   10.7056   -0.0626   23.9890 C   0  0  0  0  0  0  0  0  0  0  0  0
   10.1421   -0.7766   22.9242 C   0  0  0  0  0  0  0  0  0  0  0  0
    6.4452   -0.1472   19.6975 C   0  0  0  0  0  0  0  0  0  0  0  0
   12.3697   -1.3298   22.2224 C   0  0  0  0  0  0  0  0  0  0  0  0
    9.9496    0.5589   24.9527 C   0  0  0  0  0  0  0  0  0  0  0  0
    8.2504    0.0168   21.4265 C   0  0  0  0  0  0  0  0  0  0  0  0
    7.2691    2.2218   25.9962 C   0  0  0  0  0  0  0  0  0  0  0  0
    7.6282    3.0959   23.6281 C   0  0  0  0  0  0  0  0  0  0  0  0
    8.8289    3.4955   24.4345 C   0  0  0  0  0  0  0  0  0  0  0  0
    8.0155   -2.1541   22.4325 C   0  0  0  0  0  0  0  0  0  0  0  0
    6.9880   -1.9367   21.3575 C   0  0  0  0  0  0  0  0  0  0  0  0
    7.8737   -0.1194   23.8825 C   0  0  0  0  0  0  0  0  0  0  0  0
    8.6253   -0.7606   22.6923 C   0  0  2  0  0  0  0  0  0  0  0  0
    8.0895    2.2244   24.7698 C   0  0  0  0  0  0  0  0  0  0  0  0
    7.3819    1.9478   28.4649 C   0  0  0  0  0  0  0  0  0  0  0  0
    6.3072    0.3768   17.3417 N   0  0  0  0  0  0  0  0  0  0  0  0
    7.2305   -0.6898   20.7785 N   0  0  0  0  0  0  0  0  0  0  0  0
    8.6625    1.0133   24.4989 N   0  0  0  0  0  0  0  0  0  0  0  0
    7.9879    1.9904   27.1535 N   0  0  0  0  0  0  0  0  0  0  0  0
   10.3247    0.7292   26.1099 O   0  0  0  0  0  0  0  0  0  0  0  0
    8.7593    1.0936   21.1345 O   0  0  0  0  0  0  0  0  0  0  0  0
    6.0619    2.4168   25.9160 O   0  0  0  0  0  0  0  0  0  0  0  0
   13.4289   -2.1367   21.1054 Cl  0  0  0  0  0  0  0  0  0  0  0  0
    2.5443    3.3508   20.6368 H   0  0  0  0  0  0  0  0  0  0  0  0
    3.5189    2.1137   22.5166 H   0  0  0  0  0  0  0  0  0  0  0  0
    3.3421    2.9744   18.3363 H   0  0  0  0  0  0  0  0  0  0  0  0
    5.3131    0.4893   22.1569 H   0  0  0  0  0  0  0  0  0  0  0  0
   12.5184    0.5915   24.9744 H   0  0  0  0  0  0  0  0  0  0  0  0
   13.9920   -0.5164   23.3774 H   0  0  0  0  0  0  0  0  0  0  0  0
   10.6144   -2.0176   21.2209 H   0  0  0  0  0  0  0  0  0  0  0  0
    4.9151    1.7511   16.7471 H   0  0  0  0  0  0  0  0  0  0  0  0
    7.6455   -0.9765   18.1038 H   0  0  0  0  0  0  0  0  0  0  0  0
    6.7235    3.6797   23.7511 H   0  0  0  0  0  0  0  0  0  0  0  0
    7.7969    2.7523   22.6142 H   0  0  0  0  0  0  0  0  0  0  0  0
    9.8005    3.4184   23.9607 H   0  0  0  0  0  0  0  0  0  0  0  0
    8.7280    4.3468   25.0975 H   0  0  0  0  0  0  0  0  0  0  0  0
    7.5793   -2.6156   23.3301 H   0  0  0  0  0  0  0  0  0  0  0  0
    8.7862   -2.8457   22.0570 H   0  0  0  0  0  0  0  0  0  0  0  0
    7.0237   -2.7507   20.5944 H   0  0  0  0  0  0  0  0  0  0  0  0
    5.9567   -1.9485   21.7835 H   0  0  0  0  0  0  0  0  0  0  0  0
    6.8967    0.2572   23.5791 H   0  0  0  0  0  0  0  0  0  0  0  0
    7.7187   -0.8395   24.6898 H   0  0  0  0  0  0  0  0  0  0  0  0
    7.3856    2.9564   28.9040 H   0  0  0  0  0  0  0  0  0  0  0  0
    6.3455    1.5896   28.3784 H   0  0  0  0  0  0  0  0  0  0  0  0
    7.9533    1.2648   29.1107 H   0  0  0  0  0  0  0  0  0  0  0  0
    8.9899    1.8431   27.0789 H   0  0  0  0  0  0  0  0  0  0  0  0
  1  2  2  0  0  0  0
  1  3  1  0  0  0  0
  2  4  1  0  0  0  0
  3 10  2  0  0  0  0
  4 11  2  0  0  0  0
  5  6  2  0  0  0  0
  5 12  1  0  0  0  0
  6 15  1  0  0  0  0
  7 13  1  0  0  0  0
  7 15  2  0  0  0  0
  8 10  1  0  0  0  0
  8 27  2  0  0  0  0
  9 14  2  0  0  0  0
  9 27  1  0  0  0  0
 10 11  1  0  0  0  0
 11 14  1  0  0  0  0
 12 13  2  0  0  0  0
 12 16  1  0  0  0  0
 13 24  1  6  0  0  0
 14 28  1  0  0  0  0
 15 34  1  0  0  0  0
 16 29  1  0  0  0  0
 16 31  2  0  0  0  0
 17 24  1  6  0  0  0
 17 28  1  0  0  0  0
 17 32  2  0  0  0  0
 18 25  1  0  0  0  0
 18 30  1  0  0  0  0
 18 33  2  0  0  0  0
 19 20  1  0  0  0  0
 19 25  1  0  0  0  0
 20 25  1  0  0  0  0
 21 22  1  0  0  0  0
 21 24  1  1  0  0  0
 22 28  1  0  0  0  0
 23 24  1  1  0  0  0
 23 29  1  0  0  0  0
 25 29  1  0  0  0  0
 26 30  1  0  0  0  0
  1 35  1  0  0  0  0
  2 36  1  0  0  0  0
  3 37  1  0  0  0  0
  4 38  1  0  0  0  0
  5 39  1  0  0  0  0
  6 40  1  0  0  0  0
  7 41  1  0  0  0  0
  8 42  1  0  0  0  0
  9 43  1  0  0  0  0
 19 44  1  0  0  0  0
 19 45  1  0  0  0  0
 20 46  1  0  0  0  0
 20 47  1  0  0  0  0
 21 48  1  0  0  0  0
 21 49  1  0  0  0  0
 22 50  1  0  0  0  0
 22 51  1  0  0  0  0
 23 52  1  0  0  0  0
 23 53  1  0  0  0  0
 26 54  1  0  0  0  0
 26 55  1  0  0  0  0
 26 56  1  0  0  0  0
 30 57  1  0  0  0  0
M  END
> <scaffold>
tetrahydroisoquinoline-5spiro-isoquinoline

> <compound>
MAT-POS-e48723dc-2

> <compound_smiles>
CNC(=O)C1(CC1)N2C[C@@]3(CCN(C3=O)c4cncc5c4cccc5)c6cc(ccc6C2=O)Cl

> <enantiomer_smiles>
CNC(=O)C1(CC1)N2C[C@@]3(CCN(C3=O)c4cncc5c4cccc5)c6cc(ccc6C2=O)Cl

> <clash_score>
0

> <docking_score>
3.4028234663852886e+38

> <overlap_score>
0.9884056448936462

> <MMFF_internal_energy>
144.03394783831277

> <docked_smiles>
CNC(=O)C1(CC1)N2C[C@@]3(CCN(C3=O)c4cncc5c4cccc5)c6cc(ccc6C2=O)Cl

$$$$
EDJ-MED-cc48ee33-3_1
  -OEChem-01042202313D

 56 61  0     1  0  0  0  0  0999 V2000
    3.3444    2.6278   20.4409 C   0  0  0  0  0  0  0  0  0  0  0  0
    3.8974    1.9290   21.5048 C   0  0  0  0  0  0  0  0  0  0  0  0
    3.7877    2.4205   19.1658 C   0  0  0  0  0  0  0  0  0  0  0  0
    4.8986    1.0232   21.2985 C   0  0  0  0  0  0  0  0  0  0  0  0
   12.0781    0.0316   24.1532 C   0  0  0  0  0  0  0  0  0  0  0  0
   12.9147   -0.6032   23.2559 C   0  0  0  0  0  0  0  0  0  0  0  0
    5.8478    1.7904   25.3790 C   0  0  0  0  0  0  0  0  0  0  0  0
   11.0005   -1.4332   22.0435 C   0  0  0  0  0  0  0  0  0  0  0  0
    4.6585    2.5342   25.2594 C   0  0  0  0  0  0  0  0  0  0  0  0
    5.3288    1.2339   17.6062 C   0  0  0  0  0  0  0  0  0  0  0  0
    6.8449   -0.2893   18.3747 C   0  0  0  0  0  0  0  0  0  0  0  0
    4.8238    1.4906   18.9051 C   0  0  0  0  0  0  0  0  0  0  0  0
    5.3995    0.7732   19.9944 C   0  0  0  0  0  0  0  0  0  0  0  0
   10.7056   -0.0626   23.9890 C   0  0  0  0  0  0  0  0  0  0  0  0
   10.1421   -0.7766   22.9242 C   0  0  0  0  0  0  0  0  0  0  0  0
    6.4452   -0.1472   19.6975 C   0  0  0  0  0  0  0  0  0  0  0  0
   12.3697   -1.3298   22.2224 C   0  0  0  0  0  0  0  0  0  0  0  0
    6.8064    2.5787   24.7906 C   0  0  0  0  0  0  0  0  0  0  0  0
    8.2504    0.0168   21.4265 C   0  0  0  0  0  0  0  0  0  0  0  0
    8.2406    2.3096   24.6256 C   0  0  0  0  0  0  0  0  0  0  0  0
    9.9496    0.5589   24.9527 C   0  0  0  0  0  0  0  0  0  0  0  0
    8.0155   -2.1541   22.4325 C   0  0  0  0  0  0  0  0  0  0  0  0
    6.9880   -1.9367   21.3575 C   0  0  0  0  0  0  0  0  0  0  0  0
    7.8737   -0.1194   23.8825 C   0  0  0  0  0  0  0  0  0  0  0  0
    8.6253   -0.7606   22.6923 C   0  0  3  0  0  0  0  0  0  0  0  0
    6.7404    4.8370   23.6911 C   0  0  0  0  0  0  0  0  0  0  0  0
    6.3072    0.3768   17.3417 N   0  0  0  0  0  0  0  0  0  0  0  0
    4.8423    3.7050   24.6435 N   0  0  0  0  0  0  0  0  0  0  0  0
    6.1583    3.7030   24.3710 N   0  0  0  0  0  0  0  0  0  0  0  0
    7.2305   -0.6898   20.7785 N   0  0  0  0  0  0  0  0  0  0  0  0
    8.6625    1.0133   24.4989 N   0  0  0  0  0  0  0  0  0  0  0  0
    8.8293    1.0423   21.0795 O   0  0  0  0  0  0  0  0  0  0  0  0
    8.9805    3.2920   24.6207 O   0  0  0  0  0  0  0  0  0  0  0  0
   13.4297   -2.1471   21.1135 Cl  0  0  0  0  0  0  0  0  0  0  0  0
    2.5443    3.3508   20.6368 H   0  0  0  0  0  0  0  0  0  0  0  0
    3.5189    2.1137   22.5166 H   0  0  0  0  0  0  0  0  0  0  0  0
    3.3421    2.9744   18.3363 H   0  0  0  0  0  0  0  0  0  0  0  0
    5.3131    0.4893   22.1569 H   0  0  0  0  0  0  0  0  0  0  0  0
   12.5054    0.5873   24.9795 H   0  0  0  0  0  0  0  0  0  0  0  0
   13.9928   -0.5292   23.3862 H   0  0  0  0  0  0  0  0  0  0  0  0
    5.9847    0.8187   25.8311 H   0  0  0  0  0  0  0  0  0  0  0  0
   10.6151   -2.0340   21.2349 H   0  0  0  0  0  0  0  0  0  0  0  0
    3.6656    2.2722   25.5956 H   0  0  0  0  0  0  0  0  0  0  0  0
    4.9151    1.7511   16.7471 H   0  0  0  0  0  0  0  0  0  0  0  0
    7.6455   -0.9765   18.1038 H   0  0  0  0  0  0  0  0  0  0  0  0
    9.7853   -0.0929   25.8506 H   0  0  0  0  0  0  0  0  0  0  0  0
   10.4596    1.4724   25.3577 H   0  0  0  0  0  0  0  0  0  0  0  0
    7.5132   -2.5697   23.3189 H   0  0  0  0  0  0  0  0  0  0  0  0
    8.7733   -2.8987   22.1393 H   0  0  0  0  0  0  0  0  0  0  0  0
    7.0532   -2.7254   20.5703 H   0  0  0  0  0  0  0  0  0  0  0  0
    5.9526   -1.9949   21.7726 H   0  0  0  0  0  0  0  0  0  0  0  0
    6.9275    0.3345   23.5577 H   0  0  0  0  0  0  0  0  0  0  0  0
    7.6195   -0.8486   24.6558 H   0  0  0  0  0  0  0  0  0  0  0  0
    6.6859    4.6498   22.6155 H   0  0  0  0  0  0  0  0  0  0  0  0
    6.1838    5.7420   23.9504 H   0  0  0  0  0  0  0  0  0  0  0  0
    7.7806    4.9533   24.0079 H   0  0  0  0  0  0  0  0  0  0  0  0
  1  2  2  0  0  0  0
  1  3  1  0  0  0  0
  2  4  1  0  0  0  0
  3 12  2  0  0  0  0
  4 13  2  0  0  0  0
  5  6  2  0  0  0  0
  5 14  1  0  0  0  0
  6 17  1  0  0  0  0
  7  9  1  0  0  0  0
  7 18  2  0  0  0  0
  8 15  1  0  0  0  0
  8 17  2  0  0  0  0
  9 28  2  0  0  0  0
 10 12  1  0  0  0  0
 10 27  2  0  0  0  0
 11 16  2  0  0  0  0
 11 27  1  0  0  0  0
 12 13  1  0  0  0  0
 13 16  1  0  0  0  0
 14 15  2  0  0  0  0
 14 21  1  0  0  0  0
 15 25  1  0  0  0  0
 16 30  1  0  0  0  0
 17 34  1  0  0  0  0
 18 20  1  0  0  0  0
 18 29  1  0  0  0  0
 19 25  1  0  0  0  0
 19 30  1  0  0  0  0
 19 32  2  0  0  0  0
 20 31  1  0  0  0  0
 20 33  2  0  0  0  0
 21 31  1  0  0  0  0
 22 23  1  0  0  0  0
 22 25  1  0  0  0  0
 23 30  1  0  0  0  0
 24 25  1  0  0  0  0
 24 31  1  0  0  0  0
 26 29  1  0  0  0  0
 28 29  1  0  0  0  0
  1 35  1  0  0  0  0
  2 36  1  0  0  0  0
  3 37  1  0  0  0  0
  4 38  1  0  0  0  0
  5 39  1  0  0  0  0
  6 40  1  0  0  0  0
  7 41  1  0  0  0  0
  8 42  1  0  0  0  0
  9 43  1  0  0  0  0
 10 44  1  0  0  0  0
 11 45  1  0  0  0  0
 21 46  1  0  0  0  0
 21 47  1  0  0  0  0
 22 48  1  0  0  0  0
 22 49  1  0  0  0  0
 23 50  1  0  0  0  0
 23 51  1  0  0  0  0
 24 52  1  0  0  0  0
 24 53  1  0  0  0  0
 26 54  1  0  0  0  0
 26 55  1  0  0  0  0
 26 56  1  0  0  0  0
M  END
> <scaffold>
tetrahydroisoquinoline-5spiro-isoquinoline

> <compound>
EDJ-MED-cc48ee33-3

> <compound_smiles>
Cn1c(ccn1)C(=O)N2Cc3ccc(cc3C4(C2)CCN(C4=O)c5cncc6c5cccc6)Cl

> <enantiomer_smiles>
Cn1c(ccn1)C(=O)N2Cc3ccc(cc3[C@@]4(C2)CCN(C4=O)c5cncc6c5cccc6)Cl

> <clash_score>
0

> <docking_score>
3.4028234663852886e+38

> <overlap_score>
0.9739547371864319

> <MMFF_internal_energy>
124.89314363182625

> <docked_smiles>
Cn1c(ccn1)C(=O)N2Cc3ccc(cc3[C@@]4(C2)CCN(C4=O)c5cncc6c5cccc6)Cl

$$$$
PET-UNK-77d5678a-2_1
  -OEChem-01042202313D

 50 55  0     1  0  0  0  0  0999 V2000
    3.3444    2.6278   20.4409 C   0  0  0  0  0  0  0  0  0  0  0  0
    3.8974    1.9290   21.5048 C   0  0  0  0  0  0  0  0  0  0  0  0
    3.7877    2.4205   19.1658 C   0  0  0  0  0  0  0  0  0  0  0  0
    4.8986    1.0232   21.2985 C   0  0  0  0  0  0  0  0  0  0  0  0
   12.0781    0.0316   24.1532 C   0  0  0  0  0  0  0  0  0  0  0  0
   12.9147   -0.6032   23.2559 C   0  0  0  0  0  0  0  0  0  0  0  0
   11.0005   -1.4332   22.0435 C   0  0  0  0  0  0  0  0  0  0  0  0
    5.3288    1.2339   17.6062 C   0  0  0  0  0  0  0  0  0  0  0  0
    6.8449   -0.2893   18.3747 C   0  0  0  0  0  0  0  0  0  0  0  0
    6.4763    2.9279   27.8364 C   0  0  0  0  0  0  0  0  0  0  0  0
    4.8238    1.4906   18.9051 C   0  0  0  0  0  0  0  0  0  0  0  0
    5.3995    0.7732   19.9944 C   0  0  0  0  0  0  0  0  0  0  0  0
   10.7056   -0.0626   23.9890 C   0  0  0  0  0  0  0  0  0  0  0  0
   10.1421   -0.7766   22.9242 C   0  0  0  0  0  0  0  0  0  0  0  0
    6.4452   -0.1472   19.6975 C   0  0  0  0  0  0  0  0  0  0  0  0
   12.3697   -1.3298   22.2224 C   0  0  0  0  0  0  0  0  0  0  0  0
    7.3034    2.1712   26.0590 C   0  0  0  0  0  0  0  0  0  0  0  0
    9.9496    0.5589   24.9527 C   0  0  0  0  0  0  0  0  0  0  0  0
    6.9880   -1.9367   21.3575 C   0  0  0  0  0  0  0  0  0  0  0  0
    8.2504    0.0168   21.4265 C   0  0  0  0  0  0  0  0  0  0  0  0
    8.0155   -2.1541   22.4325 C   0  0  0  0  0  0  0  0  0  0  0  0
    7.8737   -0.1194   23.8825 C   0  0  0  0  0  0  0  0  0  0  0  0
    8.6253   -0.7606   22.6923 C   0  0  1  0  0  0  0  0  0  0  0  0
    8.0876    2.2170   24.7795 C   0  0  0  0  0  0  0  0  0  0  0  0
    6.3072    0.3768   17.3417 N   0  0  0  0  0  0  0  0  0  0  0  0
    6.1098    1.6690   27.7768 N   0  0  0  0  0  0  0  0  0  0  0  0
    6.6541    1.1712   26.6076 N   0  0  0  0  0  0  0  0  0  0  0  0
    7.2305   -0.6898   20.7785 N   0  0  0  0  0  0  0  0  0  0  0  0
    8.6625    1.0133   24.4989 N   0  0  0  0  0  0  0  0  0  0  0  0
   10.3251    0.7340   26.1064 O   0  0  0  0  0  0  0  0  0  0  0  0
    6.1256   -2.7638   21.0990 O   0  0  0  0  0  0  0  0  0  0  0  0
    8.7812    1.0656   21.0999 O   0  0  0  0  0  0  0  0  0  0  0  0
    7.2381    3.3237   26.7802 O   0  0  0  0  0  0  0  0  0  0  0  0
   13.4287   -2.1485   21.1132 Cl  0  0  0  0  0  0  0  0  0  0  0  0
    2.5443    3.3508   20.6368 H   0  0  0  0  0  0  0  0  0  0  0  0
    3.5189    2.1137   22.5166 H   0  0  0  0  0  0  0  0  0  0  0  0
    3.3421    2.9744   18.3363 H   0  0  0  0  0  0  0  0  0  0  0  0
    5.3131    0.4893   22.1569 H   0  0  0  0  0  0  0  0  0  0  0  0
   12.5193    0.5899   24.9743 H   0  0  0  0  0  0  0  0  0  0  0  0
   13.9921   -0.5285   23.3850 H   0  0  0  0  0  0  0  0  0  0  0  0
   10.6066   -2.0252   21.2291 H   0  0  0  0  0  0  0  0  0  0  0  0
    4.9151    1.7511   16.7471 H   0  0  0  0  0  0  0  0  0  0  0  0
    7.6455   -0.9765   18.1038 H   0  0  0  0  0  0  0  0  0  0  0  0
    6.2571    3.6653   28.5926 H   0  0  0  0  0  0  0  0  0  0  0  0
    7.5414   -2.5801   23.3234 H   0  0  0  0  0  0  0  0  0  0  0  0
    8.7503   -2.8731   22.0498 H   0  0  0  0  0  0  0  0  0  0  0  0
    6.9287    0.3240   23.5694 H   0  0  0  0  0  0  0  0  0  0  0  0
    7.6686   -0.8487   24.6632 H   0  0  0  0  0  0  0  0  0  0  0  0
    7.4419    2.4995   23.9408 H   0  0  0  0  0  0  0  0  0  0  0  0
    8.8900    2.9600   24.8367 H   0  0  0  0  0  0  0  0  0  0  0  0
  1  2  2  0  0  0  0
  1  3  1  0  0  0  0
  2  4  1  0  0  0  0
  3 11  2  0  0  0  0
  4 12  2  0  0  0  0
  5  6  2  0  0  0  0
  5 13  1  0  0  0  0
  6 16  1  0  0  0  0
  7 14  1  0  0  0  0
  7 16  2  0  0  0  0
  8 11  1  0  0  0  0
  8 25  2  0  0  0  0
  9 15  2  0  0  0  0
  9 25  1  0  0  0  0
 10 26  2  0  0  0  0
 10 33  1  0  0  0  0
 11 12  1  0  0  0  0
 12 15  1  0  0  0  0
 13 14  2  0  0  0  0
 13 18  1  0  0  0  0
 14 23  1  6  0  0  0
 15 28  1  0  0  0  0
 16 34  1  0  0  0  0
 17 24  1  0  0  0  0
 17 27  2  0  0  0  0
 17 33  1  0  0  0  0
 18 29  1  0  0  0  0
 18 30  2  0  0  0  0
 19 21  1  0  0  0  0
 19 28  1  0  0  0  0
 19 31  2  0  0  0  0
 20 23  1  1  0  0  0
 20 28  1  0  0  0  0
 20 32  2  0  0  0  0
 21 23  1  1  0  0  0
 22 23  1  6  0  0  0
 22 29  1  0  0  0  0
 24 29  1  0  0  0  0
 26 27  1  0  0  0  0
  1 35  1  0  0  0  0
  2 36  1  0  0  0  0
  3 37  1  0  0  0  0
  4 38  1  0  0  0  0
  5 39  1  0  0  0  0
  6 40  1  0  0  0  0
  7 41  1  0  0  0  0
  8 42  1  0  0  0  0
  9 43  1  0  0  0  0
 10 44  1  0  0  0  0
 21 45  1  0  0  0  0
 21 46  1  0  0  0  0
 22 47  1  0  0  0  0
 22 48  1  0  0  0  0
 24 49  1  0  0  0  0
 24 50  1  0  0  0  0
M  END
> <scaffold>
tetrahydroisoquinoline-5spiro-isoquinoline

> <compound>
PET-UNK-77d5678a-2

> <compound_smiles>
c1ccc2c(c1)cncc2N3C(=O)C[C@@]4(C3=O)CN(C(=O)c5c4cc(cc5)Cl)Cc6nnco6

> <enantiomer_smiles>
c1ccc2c(c1)cncc2N3C(=O)C[C@@]4(C3=O)CN(C(=O)c5c4cc(cc5)Cl)Cc6nnco6

> <clash_score>
0

> <docking_score>
3.4028234663852886e+38

> <overlap_score>
1.011588454246521

> <MMFF_internal_energy>
129.09152999079564

> <docked_smiles>
c1ccc2c(c1)cncc2N3C(=O)C[C@@]4(C3=O)CN(C(=O)c5c4cc(cc5)Cl)Cc6nnco6

$$$$
EDJ-MED-fd8ed875-2_1
  -OEChem-01042202313D

 55 60  0     1  0  0  0  0  0999 V2000
    3.3444    2.6278   20.4409 C   0  0  0  0  0  0  0  0  0  0  0  0
    3.8974    1.9290   21.5048 C   0  0  0  0  0  0  0  0  0  0  0  0
    3.7877    2.4205   19.1658 C   0  0  0  0  0  0  0  0  0  0  0  0
    4.8986    1.0232   21.2985 C   0  0  0  0  0  0  0  0  0  0  0  0
   12.0781    0.0316   24.1532 C   0  0  0  0  0  0  0  0  0  0  0  0
   12.9147   -0.6032   23.2559 C   0  0  0  0  0  0  0  0  0  0  0  0
   11.0005   -1.4332   22.0435 C   0  0  0  0  0  0  0  0  0  0  0  0
    5.3288    1.2339   17.6062 C   0  0  0  0  0  0  0  0  0  0  0  0
    6.8449   -0.2893   18.3747 C   0  0  0  0  0  0  0  0  0  0  0  0
    4.8238    1.4906   18.9051 C   0  0  0  0  0  0  0  0  0  0  0  0
    5.3995    0.7732   19.9944 C   0  0  0  0  0  0  0  0  0  0  0  0
   10.7056   -0.0626   23.9890 C   0  0  0  0  0  0  0  0  0  0  0  0
   10.1421   -0.7766   22.9242 C   0  0  0  0  0  0  0  0  0  0  0  0
    6.4452   -0.1472   19.6975 C   0  0  0  0  0  0  0  0  0  0  0  0
   12.3697   -1.3298   22.2224 C   0  0  0  0  0  0  0  0  0  0  0  0
    6.9880   -1.9367   21.3575 C   0  0  0  0  0  0  0  0  0  0  0  0
    9.9496    0.5589   24.9527 C   0  0  0  0  0  0  0  0  0  0  0  0
    8.2504    0.0168   21.4265 C   0  0  0  0  0  0  0  0  0  0  0  0
    7.2764    2.1817   26.0180 C   0  0  0  0  0  0  0  0  0  0  0  0
    7.6503    3.1242   23.6786 C   0  0  0  0  0  0  0  0  0  0  0  0
    8.8560    3.4808   24.4977 C   0  0  0  0  0  0  0  0  0  0  0  0
    7.8737   -0.1194   23.8825 C   0  0  0  0  0  0  0  0  0  0  0  0
    8.6253   -0.7606   22.6923 C   0  0  3  0  0  0  0  0  0  0  0  0
    8.0979    2.2108   24.7926 C   0  0  0  0  0  0  0  0  0  0  0  0
    7.3831    1.8289   28.4770 C   0  0  0  0  0  0  0  0  0  0  0  0
    6.3072    0.3768   17.3417 N   0  0  0  0  0  0  0  0  0  0  0  0
    7.2305   -0.6898   20.7785 N   0  0  0  0  0  0  0  0  0  0  0  0
    8.6625    1.0133   24.4989 N   0  0  0  0  0  0  0  0  0  0  0  0
    8.0155   -2.1541   22.4325 N   0  3  0  0  0  0  0  0  0  0  0  0
    7.9907    1.9037   27.1677 N   0  0  0  0  0  0  0  0  0  0  0  0
   10.3229    0.7408   26.1061 O   0  0  0  0  0  0  0  0  0  0  0  0
    8.7830    1.0590   21.0350 O   0  0  0  0  0  0  0  0  0  0  0  0
    6.0723    2.3968   25.9434 O   0  0  0  0  0  0  0  0  0  0  0  0
   13.4282   -2.1474   21.1121 Cl  0  0  0  0  0  0  0  0  0  0  0  0
    2.5442    3.3510   20.6363 H   0  0  0  0  0  0  0  0  0  0  0  0
    3.5187    2.1134   22.5165 H   0  0  0  0  0  0  0  0  0  0  0  0
    3.3428    2.9753   18.3365 H   0  0  0  0  0  0  0  0  0  0  0  0
    5.3156    0.4866   22.1542 H   0  0  0  0  0  0  0  0  0  0  0  0
   12.5183    0.5932   24.9736 H   0  0  0  0  0  0  0  0  0  0  0  0
   13.9918   -0.5255   23.3838 H   0  0  0  0  0  0  0  0  0  0  0  0
   10.6051   -2.0233   21.2271 H   0  0  0  0  0  0  0  0  0  0  0  0
    4.9147    1.7513   16.7472 H   0  0  0  0  0  0  0  0  0  0  0  0
    7.6465   -0.9763   18.1075 H   0  0  0  0  0  0  0  0  0  0  0  0
    6.2872   -2.6097   21.1564 H   0  0  0  0  0  0  0  0  0  0  0  0
    6.7541    3.7171   23.8195 H   0  0  0  0  0  0  0  0  0  0  0  0
    7.8149    2.8102   22.6545 H   0  0  0  0  0  0  0  0  0  0  0  0
    9.8268    3.4045   24.0220 H   0  0  0  0  0  0  0  0  0  0  0  0
    8.7669    4.3123   25.1869 H   0  0  0  0  0  0  0  0  0  0  0  0
    6.9304    0.3177   23.5540 H   0  0  0  0  0  0  0  0  0  0  0  0
    7.6665   -0.8595   24.6530 H   0  0  0  0  0  0  0  0  0  0  0  0
    7.4011    2.8230   28.9475 H   0  0  0  0  0  0  0  0  0  0  0  0
    6.3416    1.4887   28.3788 H   0  0  0  0  0  0  0  0  0  0  0  0
    7.9439    1.1177   29.1012 H   0  0  0  0  0  0  0  0  0  0  0  0
    8.1548   -3.0053   22.7710 H   0  0  0  0  0  0  0  0  0  0  0  0
    8.9906    1.7442   27.0890 H   0  0  0  0  0  0  0  0  0  0  0  0
  1  2  2  0  0  0  0
  1  3  1  0  0  0  0
  2  4  1  0  0  0  0
  3 10  2  0  0  0  0
  4 11  2  0  0  0  0
  5  6  2  0  0  0  0
  5 12  1  0  0  0  0
  6 15  1  0  0  0  0
  7 13  1  0  0  0  0
  7 15  2  0  0  0  0
  8 10  1  0  0  0  0
  8 26  2  0  0  0  0
  9 14  2  0  0  0  0
  9 26  1  0  0  0  0
 10 11  1  0  0  0  0
 11 14  1  0  0  0  0
 12 13  2  0  0  0  0
 12 17  1  0  0  0  0
 13 23  1  0  0  0  0
 14 27  1  0  0  0  0
 15 34  1  0  0  0  0
 16 27  1  0  0  0  0
 16 29  2  0  0  0  0
 17 28  1  0  0  0  0
 17 31  2  0  0  0  0
 18 23  1  0  0  0  0
 18 27  1  0  0  0  0
 18 32  2  0  0  0  0
 19 24  1  0  0  0  0
 19 30  1  0  0  0  0
 19 33  2  0  0  0  0
 20 21  1  0  0  0  0
 20 24  1  0  0  0  0
 21 24  1  0  0  0  0
 22 23  1  0  0  0  0
 22 28  1  0  0  0  0
 23 29  1  0  0  0  0
 24 28  1  0  0  0  0
 25 30  1  0  0  0  0
  1 35  1  0  0  0  0
  2 36  1  0  0  0  0
  3 37  1  0  0  0  0
  4 38  1  0  0  0  0
  5 39  1  0  0  0  0
  6 40  1  0  0  0  0
  7 41  1  0  0  0  0
  8 42  1  0  0  0  0
  9 43  1  0  0  0  0
 16 44  1  0  0  0  0
 20 45  1  0  0  0  0
 20 46  1  0  0  0  0
 21 47  1  0  0  0  0
 21 48  1  0  0  0  0
 22 49  1  0  0  0  0
 22 50  1  0  0  0  0
 25 51  1  0  0  0  0
 25 52  1  0  0  0  0
 25 53  1  0  0  0  0
 29 54  1  0  0  0  0
 30 55  1  0  0  0  0
M  CHG  1  29   1
M  END
> <scaffold>
tetrahydroisoquinoline-5spiro-isoquinoline

> <compound>
EDJ-MED-fd8ed875-2

> <compound_smiles>
CNC(=O)C1(CC1)N2CC3(c4cc(ccc4C2=O)Cl)C(=O)N(C=N3)c5cncc6c5cccc6

> <enantiomer_smiles>
CNC(=O)C1(CC1)N2C[C@@]3(c4cc(ccc4C2=O)Cl)C(=O)N(C=N3)c5cncc6c5cccc6

> <clash_score>
0

> <docking_score>
3.4028234663852886e+38

> <overlap_score>
0.9885327219963074

> <MMFF_internal_energy>
220.15502064579354

> <docked_smiles>
CNC(=O)C1(CC1)N2C[C@@]3(c4cc(ccc4C2=O)Cl)C(=O)N(C=[NH+]3)c5cncc6c5cccc6

$$$$
EDJ-MED-d4864bdc-4_1
  -OEChem-01042202313D

 61 65  0     1  0  0  0  0  0999 V2000
    3.7877    2.4205   19.1658 C   0  0  0  0  0  0  0  0  0  0  0  0
    3.3444    2.6278   20.4409 C   0  0  0  0  0  0  0  0  0  0  0  0
   12.0781    0.0316   24.1532 C   0  0  0  0  0  0  0  0  0  0  0  0
   12.9147   -0.6032   23.2559 C   0  0  0  0  0  0  0  0  0  0  0  0
    4.8986    1.0232   21.2985 C   0  0  0  0  0  0  0  0  0  0  0  0
   11.0005   -1.4332   22.0435 C   0  0  0  0  0  0  0  0  0  0  0  0
    5.3288    1.2339   17.6062 C   0  0  0  0  0  0  0  0  0  0  0  0
    6.8449   -0.2893   18.3747 C   0  0  0  0  0  0  0  0  0  0  0  0
    4.8238    1.4906   18.9051 C   0  0  0  0  0  0  0  0  0  0  0  0
    5.3995    0.7732   19.9944 C   0  0  0  0  0  0  0  0  0  0  0  0
   10.1421   -0.7766   22.9242 C   0  0  0  0  0  0  0  0  0  0  0  0
    6.4452   -0.1472   19.6975 C   0  0  0  0  0  0  0  0  0  0  0  0
    3.8974    1.9290   21.5048 C   0  0  0  0  0  0  0  0  0  0  0  0
   10.7056   -0.0626   23.9890 C   0  0  0  0  0  0  0  0  0  0  0  0
   12.3697   -1.3298   22.2224 C   0  0  0  0  0  0  0  0  0  0  0  0
    8.2504    0.0168   21.4265 C   0  0  0  0  0  0  0  0  0  0  0  0
    8.0155   -2.1541   22.4325 C   0  0  0  0  0  0  0  0  0  0  0  0
    7.8737   -0.1194   23.8825 C   0  0  0  0  0  0  0  0  0  0  0  0
    6.9880   -1.9367   21.3575 C   0  0  0  0  0  0  0  0  0  0  0  0
    8.6625    1.0133   24.4989 C   0  0  0  0  0  0  0  0  0  0  0  0
    8.6253   -0.7606   22.6923 C   0  0  3  0  0  0  0  0  0  0  0  0
    0.9114   -0.1108   23.1468 C   0  0  0  0  0  0  0  0  0  0  0  0
   -0.1313    1.3115   24.9048 C   0  0  0  0  0  0  0  0  0  0  0  0
    2.3480    1.2047   24.6984 C   0  0  0  0  0  0  0  0  0  0  0  0
    3.4792    1.0747   23.6976 C   0  0  0  0  0  0  0  0  0  0  0  0
    6.3072    0.3768   17.3417 N   0  0  0  0  0  0  0  0  0  0  0  0
    7.2305   -0.6898   20.7785 N   0  0  0  0  0  0  0  0  0  0  0  0
    1.0495    1.1382   23.9817 N   0  3  0  0  0  0  0  0  0  0  0  0
    8.7566    1.0941   21.1311 O   0  0  0  0  0  0  0  0  0  0  0  0
    9.7120   -0.4300   26.1378 O   0  0  0  0  0  0  0  0  0  0  0  0
   10.7467    1.7884   25.4917 O   0  0  0  0  0  0  0  0  0  0  0  0
    3.4243    2.1582   22.7713 O   0  0  0  0  0  0  0  0  0  0  0  0
    9.9496    0.5589   24.9527 S   0  0  0  0  0  0  0  0  0  0  0  0
   13.4302   -2.1437   21.1108 Cl  0  0  0  0  0  0  0  0  0  0  0  0
    3.3418    2.9747   18.3367 H   0  0  0  0  0  0  0  0  0  0  0  0
    2.5418    3.3504   20.6305 H   0  0  0  0  0  0  0  0  0  0  0  0
   12.5141    0.5961   24.9741 H   0  0  0  0  0  0  0  0  0  0  0  0
   13.9930   -0.5214   23.3817 H   0  0  0  0  0  0  0  0  0  0  0  0
    5.3175    0.4856   22.1531 H   0  0  0  0  0  0  0  0  0  0  0  0
   10.6120   -2.0228   21.2300 H   0  0  0  0  0  0  0  0  0  0  0  0
    4.9141    1.7513   16.7475 H   0  0  0  0  0  0  0  0  0  0  0  0
    7.6459   -0.9759   18.1036 H   0  0  0  0  0  0  0  0  0  0  0  0
    7.5792   -2.6139   23.3283 H   0  0  0  0  0  0  0  0  0  0  0  0
    8.7727   -2.8629   22.0635 H   0  0  0  0  0  0  0  0  0  0  0  0
    7.6629   -0.8655   24.6523 H   0  0  0  0  0  0  0  0  0  0  0  0
    6.9026    0.2573   23.5461 H   0  0  0  0  0  0  0  0  0  0  0  0
    7.0247   -2.7501   20.5941 H   0  0  0  0  0  0  0  0  0  0  0  0
    5.9565   -1.9488   21.7820 H   0  0  0  0  0  0  0  0  0  0  0  0
    8.7048    1.8247   23.7053 H   0  0  0  0  0  0  0  0  0  0  0  0
    8.0006    1.4860   25.2925 H   0  0  0  0  0  0  0  0  0  0  0  0
    0.9454   -0.9686   23.8210 H   0  0  0  0  0  0  0  0  0  0  0  0
   -0.0459   -0.0596   22.6246 H   0  0  0  0  0  0  0  0  0  0  0  0
    1.7432   -0.1340   22.4402 H   0  0  0  0  0  0  0  0  0  0  0  0
   -0.1209    0.4860   25.6188 H   0  0  0  0  0  0  0  0  0  0  0  0
   -0.0202    2.2714   25.4127 H   0  0  0  0  0  0  0  0  0  0  0  0
   -1.0371    1.2922   24.2958 H   0  0  0  0  0  0  0  0  0  0  0  0
    2.3650    2.1676   25.2168 H   0  0  0  0  0  0  0  0  0  0  0  0
    2.3503    0.3838   25.4203 H   0  0  0  0  0  0  0  0  0  0  0  0
    4.4417    1.1226   24.2164 H   0  0  0  0  0  0  0  0  0  0  0  0
    3.4240    0.1310   23.1451 H   0  0  0  0  0  0  0  0  0  0  0  0
    1.0140    1.9313   23.3190 H   0  0  0  0  0  0  0  0  0  0  0  0
  1  2  2  0  0  0  0
  1  9  1  0  0  0  0
  2 13  1  0  0  0  0
  3  4  2  0  0  0  0
  3 14  1  0  0  0  0
  4 15  1  0  0  0  0
  5 10  1  0  0  0  0
  5 13  2  0  0  0  0
  6 11  1  0  0  0  0
  6 15  2  0  0  0  0
  7  9  2  0  0  0  0
  7 26  1  0  0  0  0
  8 12  1  0  0  0  0
  8 26  2  0  0  0  0
  9 10  1  0  0  0  0
 10 12  2  0  0  0  0
 11 14  2  0  0  0  0
 11 21  1  0  0  0  0
 12 27  1  0  0  0  0
 13 32  1  0  0  0  0
 14 33  1  0  0  0  0
 15 34  1  0  0  0  0
 16 21  1  0  0  0  0
 16 27  1  0  0  0  0
 16 29  2  0  0  0  0
 17 19  1  0  0  0  0
 17 21  1  0  0  0  0
 18 20  1  0  0  0  0
 18 21  1  0  0  0  0
 19 27  1  0  0  0  0
 20 33  1  0  0  0  0
 22 28  1  0  0  0  0
 23 28  1  0  0  0  0
 24 25  1  0  0  0  0
 24 28  1  0  0  0  0
 25 32  1  0  0  0  0
 30 33  2  0  0  0  0
 31 33  2  0  0  0  0
  1 35  1  0  0  0  0
  2 36  1  0  0  0  0
  3 37  1  0  0  0  0
  4 38  1  0  0  0  0
  5 39  1  0  0  0  0
  6 40  1  0  0  0  0
  7 41  1  0  0  0  0
  8 42  1  0  0  0  0
 17 43  1  0  0  0  0
 17 44  1  0  0  0  0
 18 45  1  0  0  0  0
 18 46  1  0  0  0  0
 19 47  1  0  0  0  0
 19 48  1  0  0  0  0
 20 49  1  0  0  0  0
 20 50  1  0  0  0  0
 22 51  1  0  0  0  0
 22 52  1  0  0  0  0
 22 53  1  0  0  0  0
 23 54  1  0  0  0  0
 23 55  1  0  0  0  0
 23 56  1  0  0  0  0
 24 57  1  0  0  0  0
 24 58  1  0  0  0  0
 25 59  1  0  0  0  0
 25 60  1  0  0  0  0
 28 61  1  0  0  0  0
M  CHG  1  28   1
M  END
> <scaffold>
tetralinlike-5spiro-isoquinoline

> <compound>
EDJ-MED-d4864bdc-4

> <compound_smiles>
CN(C)CCOc1ccc2cncc(c2c1)N3CCC4(C3=O)CCS(=O)(=O)c5c4cc(cc5)Cl

> <enantiomer_smiles>
CN(C)CCOc1ccc2cncc(c2c1)N3CC[C@@]4(C3=O)CCS(=O)(=O)c5c4cc(cc5)Cl

> <clash_score>
0.7168183810318016

> <docking_score>
3.4028234663852886e+38

> <overlap_score>
1.0

> <MMFF_internal_energy>
333.87630478734286

> <docked_smiles>
C[NH+](C)CCOc1ccc2cncc(c2c1)N3CC[C@@]4(C3=O)CCS(=O)(=O)c5c4cc(cc5)Cl

$$$$
PET-UNK-6af7266d-2_1
  -OEChem-01042202313D

 50 55  0     1  0  0  0  0  0999 V2000
    3.3444    2.6278   20.4409 C   0  0  0  0  0  0  0  0  0  0  0  0
    3.8974    1.9290   21.5048 C   0  0  0  0  0  0  0  0  0  0  0  0
    3.7877    2.4205   19.1658 C   0  0  0  0  0  0  0  0  0  0  0  0
    4.8986    1.0232   21.2985 C   0  0  0  0  0  0  0  0  0  0  0  0
   12.0781    0.0316   24.1532 C   0  0  0  0  0  0  0  0  0  0  0  0
   12.9147   -0.6032   23.2559 C   0  0  0  0  0  0  0  0  0  0  0  0
   11.0005   -1.4332   22.0435 C   0  0  0  0  0  0  0  0  0  0  0  0
    5.3288    1.2339   17.6062 C   0  0  0  0  0  0  0  0  0  0  0  0
    6.8449   -0.2893   18.3747 C   0  0  0  0  0  0  0  0  0  0  0  0
    6.2221    2.6318   28.1049 C   0  0  0  0  0  0  0  0  0  0  0  0
    4.8238    1.4906   18.9051 C   0  0  0  0  0  0  0  0  0  0  0  0
    5.3995    0.7732   19.9944 C   0  0  0  0  0  0  0  0  0  0  0  0
   10.7056   -0.0626   23.9890 C   0  0  0  0  0  0  0  0  0  0  0  0
   10.1421   -0.7766   22.9242 C   0  0  0  0  0  0  0  0  0  0  0  0
    6.4452   -0.1472   19.6975 C   0  0  0  0  0  0  0  0  0  0  0  0
   12.3697   -1.3298   22.2224 C   0  0  0  0  0  0  0  0  0  0  0  0
    7.3034    2.1712   26.0590 C   0  0  0  0  0  0  0  0  0  0  0  0
    9.9496    0.5589   24.9527 C   0  0  0  0  0  0  0  0  0  0  0  0
    6.9880   -1.9367   21.3575 C   0  0  0  0  0  0  0  0  0  0  0  0
    8.2504    0.0168   21.4265 C   0  0  0  0  0  0  0  0  0  0  0  0
    8.0155   -2.1541   22.4325 C   0  0  0  0  0  0  0  0  0  0  0  0
    7.8737   -0.1194   23.8825 C   0  0  0  0  0  0  0  0  0  0  0  0
    8.6253   -0.7606   22.6923 C   0  0  1  0  0  0  0  0  0  0  0  0
    8.0876    2.2170   24.7795 C   0  0  0  0  0  0  0  0  0  0  0  0
    6.3072    0.3768   17.3417 N   0  0  0  0  0  0  0  0  0  0  0  0
    6.0461    1.3825   27.7306 N   0  0  0  0  0  0  0  0  0  0  0  0
    6.6812    1.1120   26.5311 N   0  0  0  0  0  0  0  0  0  0  0  0
    7.2305   -0.6898   20.7785 N   0  0  0  0  0  0  0  0  0  0  0  0
    8.6625    1.0133   24.4989 N   0  0  0  0  0  0  0  0  0  0  0  0
   10.3251    0.7340   26.1064 O   0  0  0  0  0  0  0  0  0  0  0  0
    6.1256   -2.7638   21.0990 O   0  0  0  0  0  0  0  0  0  0  0  0
    8.7812    1.0656   21.0999 O   0  0  0  0  0  0  0  0  0  0  0  0
    7.1687    3.5773   27.0316 S   0  0  0  0  0  0  0  0  0  0  0  0
   13.4287   -2.1485   21.1132 Cl  0  0  0  0  0  0  0  0  0  0  0  0
    2.5443    3.3508   20.6368 H   0  0  0  0  0  0  0  0  0  0  0  0
    3.5189    2.1137   22.5166 H   0  0  0  0  0  0  0  0  0  0  0  0
    3.3421    2.9744   18.3363 H   0  0  0  0  0  0  0  0  0  0  0  0
    5.3131    0.4893   22.1569 H   0  0  0  0  0  0  0  0  0  0  0  0
   12.5193    0.5899   24.9743 H   0  0  0  0  0  0  0  0  0  0  0  0
   13.9921   -0.5285   23.3850 H   0  0  0  0  0  0  0  0  0  0  0  0
   10.6066   -2.0252   21.2291 H   0  0  0  0  0  0  0  0  0  0  0  0
    4.9151    1.7511   16.7471 H   0  0  0  0  0  0  0  0  0  0  0  0
    7.6455   -0.9765   18.1038 H   0  0  0  0  0  0  0  0  0  0  0  0
    5.8031    3.0325   29.0170 H   0  0  0  0  0  0  0  0  0  0  0  0
    7.5414   -2.5801   23.3234 H   0  0  0  0  0  0  0  0  0  0  0  0
    8.7503   -2.8731   22.0498 H   0  0  0  0  0  0  0  0  0  0  0  0
    6.9287    0.3240   23.5694 H   0  0  0  0  0  0  0  0  0  0  0  0
    7.6686   -0.8487   24.6632 H   0  0  0  0  0  0  0  0  0  0  0  0
    7.4419    2.4995   23.9408 H   0  0  0  0  0  0  0  0  0  0  0  0
    8.8900    2.9600   24.8367 H   0  0  0  0  0  0  0  0  0  0  0  0
  1  2  2  0  0  0  0
  1  3  1  0  0  0  0
  2  4  1  0  0  0  0
  3 11  2  0  0  0  0
  4 12  2  0  0  0  0
  5  6  2  0  0  0  0
  5 13  1  0  0  0  0
  6 16  1  0  0  0  0
  7 14  1  0  0  0  0
  7 16  2  0  0  0  0
  8 11  1  0  0  0  0
  8 25  2  0  0  0  0
  9 15  2  0  0  0  0
  9 25  1  0  0  0  0
 10 26  2  0  0  0  0
 10 33  1  0  0  0  0
 11 12  1  0  0  0  0
 12 15  1  0  0  0  0
 13 14  2  0  0  0  0
 13 18  1  0  0  0  0
 14 23  1  6  0  0  0
 15 28  1  0  0  0  0
 16 34  1  0  0  0  0
 17 24  1  0  0  0  0
 17 27  2  0  0  0  0
 17 33  1  0  0  0  0
 18 29  1  0  0  0  0
 18 30  2  0  0  0  0
 19 21  1  0  0  0  0
 19 28  1  0  0  0  0
 19 31  2  0  0  0  0
 20 23  1  1  0  0  0
 20 28  1  0  0  0  0
 20 32  2  0  0  0  0
 21 23  1  1  0  0  0
 22 23  1  6  0  0  0
 22 29  1  0  0  0  0
 24 29  1  0  0  0  0
 26 27  1  0  0  0  0
  1 35  1  0  0  0  0
  2 36  1  0  0  0  0
  3 37  1  0  0  0  0
  4 38  1  0  0  0  0
  5 39  1  0  0  0  0
  6 40  1  0  0  0  0
  7 41  1  0  0  0  0
  8 42  1  0  0  0  0
  9 43  1  0  0  0  0
 10 44  1  0  0  0  0
 21 45  1  0  0  0  0
 21 46  1  0  0  0  0
 22 47  1  0  0  0  0
 22 48  1  0  0  0  0
 24 49  1  0  0  0  0
 24 50  1  0  0  0  0
M  END
> <scaffold>
tetrahydroisoquinoline-5spiro-isoquinoline

> <compound>
PET-UNK-6af7266d-2

> <compound_smiles>
c1ccc2c(c1)cncc2N3C(=O)C[C@@]4(C3=O)CN(C(=O)c5c4cc(cc5)Cl)Cc6nncs6

> <enantiomer_smiles>
c1ccc2c(c1)cncc2N3C(=O)C[C@@]4(C3=O)CN(C(=O)c5c4cc(cc5)Cl)Cc6nncs6

> <clash_score>
0

> <docking_score>
3.4028234663852886e+38

> <overlap_score>
1.0126227140426636

> <MMFF_internal_energy>
121.67319157450275

> <docked_smiles>
c1ccc2c(c1)cncc2N3C(=O)C[C@@]4(C3=O)CN(C(=O)c5c4cc(cc5)Cl)Cc6nncs6

$$$$
VLA-UNK-f2612802-3_1
  -OEChem-01042202313D

 54 58  0     1  0  0  0  0  0999 V2000
    3.3444    2.6278   20.4409 C   0  0  0  0  0  0  0  0  0  0  0  0
    3.8974    1.9290   21.5048 C   0  0  0  0  0  0  0  0  0  0  0  0
    3.7877    2.4205   19.1658 C   0  0  0  0  0  0  0  0  0  0  0  0
    4.8986    1.0232   21.2985 C   0  0  0  0  0  0  0  0  0  0  0  0
   11.0005   -1.4332   22.0435 C   0  0  0  0  0  0  0  0  0  0  0  0
   12.9147   -0.6032   23.2559 C   0  0  0  0  0  0  0  0  0  0  0  0
    5.3288    1.2339   17.6062 C   0  0  0  0  0  0  0  0  0  0  0  0
    6.8449   -0.2893   18.3747 C   0  0  0  0  0  0  0  0  0  0  0  0
    4.8238    1.4906   18.9051 C   0  0  0  0  0  0  0  0  0  0  0  0
    5.3995    0.7732   19.9944 C   0  0  0  0  0  0  0  0  0  0  0  0
   10.1421   -0.7766   22.9242 C   0  0  0  0  0  0  0  0  0  0  0  0
    6.4452   -0.1472   19.6975 C   0  0  0  0  0  0  0  0  0  0  0  0
   12.0781    0.0316   24.1532 C   0  0  0  0  0  0  0  0  0  0  0  0
   10.7056   -0.0626   23.9890 C   0  0  0  0  0  0  0  0  0  0  0  0
   12.3697   -1.3298   22.2224 C   0  0  0  0  0  0  0  0  0  0  0  0
    8.2504    0.0168   21.4265 C   0  0  0  0  0  0  0  0  0  0  0  0
    8.1214    3.3499   24.9751 C   0  0  0  0  0  0  0  0  0  0  0  0
    8.0155   -2.1541   22.4325 C   0  0  0  0  0  0  0  0  0  0  0  0
    6.9880   -1.9367   21.3575 C   0  0  0  0  0  0  0  0  0  0  0  0
    7.8737   -0.1194   23.8825 C   0  0  0  0  0  0  0  0  0  0  0  0
    8.6253   -0.7606   22.6923 C   0  0  1  0  0  0  0  0  0  0  0  0
    8.9413    4.7454   23.0793 C   0  0  0  0  0  0  0  0  0  0  0  0
    7.7545    1.9228   25.2930 C   0  0  0  0  0  0  0  0  0  0  0  0
    6.3072    0.3768   17.3417 N   0  0  0  0  0  0  0  0  0  0  0  0
    7.2305   -0.6898   20.7785 N   0  0  0  0  0  0  0  0  0  0  0  0
    8.6625    1.0133   24.4989 N   0  0  3  0  0  0  0  0  0  0  0  0
    8.5333    3.4851   23.6571 N   0  0  0  0  0  0  0  0  0  0  0  0
    8.7591    1.0905   21.1293 O   0  0  0  0  0  0  0  0  0  0  0  0
    8.0543    4.2632   25.7935 O   0  0  0  0  0  0  0  0  0  0  0  0
   10.7612    1.7915   25.4956 O   0  0  0  0  0  0  0  0  0  0  0  0
    9.7224   -0.4065   26.1809 O   0  0  0  0  0  0  0  0  0  0  0  0
   12.6203    0.7503   25.1485 F   0  0  0  0  0  0  0  0  0  0  0  0
    9.9496    0.5589   24.9527 S   0  0  0  0  0  0  0  0  0  0  0  0
   13.4304   -2.1382   21.1072 Cl  0  0  0  0  0  0  0  0  0  0  0  0
    2.5443    3.3508   20.6368 H   0  0  0  0  0  0  0  0  0  0  0  0
    3.5189    2.1137   22.5166 H   0  0  0  0  0  0  0  0  0  0  0  0
    3.3421    2.9744   18.3363 H   0  0  0  0  0  0  0  0  0  0  0  0
    5.3131    0.4893   22.1569 H   0  0  0  0  0  0  0  0  0  0  0  0
   10.6139   -2.0151   21.2244 H   0  0  0  0  0  0  0  0  0  0  0  0
   13.9928   -0.5093   23.3730 H   0  0  0  0  0  0  0  0  0  0  0  0
    4.9151    1.7511   16.7471 H   0  0  0  0  0  0  0  0  0  0  0  0
    7.6455   -0.9765   18.1038 H   0  0  0  0  0  0  0  0  0  0  0  0
    7.5685   -2.6078   23.3254 H   0  0  0  0  0  0  0  0  0  0  0  0
    8.7586   -2.8788   22.0706 H   0  0  0  0  0  0  0  0  0  0  0  0
    7.0255   -2.7493   20.5941 H   0  0  0  0  0  0  0  0  0  0  0  0
    5.9563   -1.9482   21.7801 H   0  0  0  0  0  0  0  0  0  0  0  0
    6.9131    0.3003   23.5691 H   0  0  0  0  0  0  0  0  0  0  0  0
    7.6285   -0.8403   24.6651 H   0  0  0  0  0  0  0  0  0  0  0  0
    8.0659    5.2509   22.6455 H   0  0  0  0  0  0  0  0  0  0  0  0
    9.3818    5.3815   23.8611 H   0  0  0  0  0  0  0  0  0  0  0  0
    9.6870    4.5631   22.2914 H   0  0  0  0  0  0  0  0  0  0  0  0
    7.9515    1.7183   26.3495 H   0  0  0  0  0  0  0  0  0  0  0  0
    6.6936    1.7572   25.0837 H   0  0  0  0  0  0  0  0  0  0  0  0
    8.5490    2.6569   23.0689 H   0  0  0  0  0  0  0  0  0  0  0  0
  1  2  2  0  0  0  0
  1  3  1  0  0  0  0
  2  4  1  0  0  0  0
  3  9  2  0  0  0  0
  4 10  2  0  0  0  0
  5 11  2  0  0  0  0
  5 15  1  0  0  0  0
  6 13  1  0  0  0  0
  6 15  2  0  0  0  0
  7  9  1  0  0  0  0
  7 24  2  0  0  0  0
  8 12  2  0  0  0  0
  8 24  1  0  0  0  0
  9 10  1  0  0  0  0
 10 12  1  0  0  0  0
 11 14  1  0  0  0  0
 11 21  1  1  0  0  0
 12 25  1  0  0  0  0
 13 14  2  0  0  0  0
 13 32  1  0  0  0  0
 14 33  1  0  0  0  0
 15 34  1  0  0  0  0
 16 21  1  1  0  0  0
 16 25  1  0  0  0  0
 16 28  2  0  0  0  0
 17 23  1  0  0  0  0
 17 27  1  0  0  0  0
 17 29  2  0  0  0  0
 18 19  1  0  0  0  0
 18 21  1  6  0  0  0
 19 25  1  0  0  0  0
 20 21  1  6  0  0  0
 20 26  1  0  0  0  0
 22 27  1  0  0  0  0
 23 26  1  0  0  0  0
 26 33  1  0  0  0  0
 30 33  2  0  0  0  0
 31 33  2  0  0  0  0
  1 35  1  0  0  0  0
  2 36  1  0  0  0  0
  3 37  1  0  0  0  0
  4 38  1  0  0  0  0
  5 39  1  0  0  0  0
  6 40  1  0  0  0  0
  7 41  1  0  0  0  0
  8 42  1  0  0  0  0
 18 43  1  0  0  0  0
 18 44  1  0  0  0  0
 19 45  1  0  0  0  0
 19 46  1  0  0  0  0
 20 47  1  0  0  0  0
 20 48  1  0  0  0  0
 22 49  1  0  0  0  0
 22 50  1  0  0  0  0
 22 51  1  0  0  0  0
 23 52  1  0  0  0  0
 23 53  1  0  0  0  0
 27 54  1  0  0  0  0
M  END
> <scaffold>
tetralinlike-5spiro-isoquinoline

> <compound>
VLA-UNK-f2612802-3

> <compound_smiles>
CNC(=O)CN1C[C@]2(CCN(C2=O)c3cncc4c3cccc4)c5cc(cc(c5S1(=O)=O)F)Cl

> <enantiomer_smiles>
CNC(=O)C[N@]1C[C@]2(CCN(C2=O)c3cncc4c3cccc4)c5cc(cc(c5S1(=O)=O)F)Cl

> <clash_score>
0.7188091465649632

> <docking_score>
3.4028234663852886e+38

> <overlap_score>
1.0

> <MMFF_internal_energy>
214.1202232729922

> <docked_smiles>
CNC(=O)C[N@@]1C[C@]2(CCN(C2=O)c3cncc4c3cccc4)c5cc(cc(c5S1(=O)=O)F)Cl

$$$$
12_-111-3e02a1cd-1_1
  -OEChem-01042202313D

 50 55  0     1  0  0  0  0  0999 V2000
    3.3444    2.6278   20.4409 C   0  0  0  0  0  0  0  0  0  0  0  0
    3.8974    1.9290   21.5048 C   0  0  0  0  0  0  0  0  0  0  0  0
    3.7877    2.4205   19.1658 C   0  0  0  0  0  0  0  0  0  0  0  0
    4.8986    1.0232   21.2985 C   0  0  0  0  0  0  0  0  0  0  0  0
   12.0781    0.0316   24.1532 C   0  0  0  0  0  0  0  0  0  0  0  0
   12.9147   -0.6032   23.2559 C   0  0  0  0  0  0  0  0  0  0  0  0
   11.0005   -1.4332   22.0435 C   0  0  0  0  0  0  0  0  0  0  0  0
    5.3288    1.2339   17.6062 C   0  0  0  0  0  0  0  0  0  0  0  0
    6.8449   -0.2893   18.3747 C   0  0  0  0  0  0  0  0  0  0  0  0
    6.4763    2.9279   27.8364 C   0  0  0  0  0  0  0  0  0  0  0  0
    4.8238    1.4906   18.9051 C   0  0  0  0  0  0  0  0  0  0  0  0
    5.3995    0.7732   19.9944 C   0  0  0  0  0  0  0  0  0  0  0  0
   10.7056   -0.0626   23.9890 C   0  0  0  0  0  0  0  0  0  0  0  0
   10.1421   -0.7766   22.9242 C   0  0  0  0  0  0  0  0  0  0  0  0
    6.4452   -0.1472   19.6975 C   0  0  0  0  0  0  0  0  0  0  0  0
   12.3697   -1.3298   22.2224 C   0  0  0  0  0  0  0  0  0  0  0  0
    7.3034    2.1712   26.0590 C   0  0  0  0  0  0  0  0  0  0  0  0
    9.9496    0.5589   24.9527 C   0  0  0  0  0  0  0  0  0  0  0  0
    6.9880   -1.9367   21.3575 C   0  0  0  0  0  0  0  0  0  0  0  0
    8.2504    0.0168   21.4265 C   0  0  0  0  0  0  0  0  0  0  0  0
    8.0155   -2.1541   22.4325 C   0  0  0  0  0  0  0  0  0  0  0  0
    7.8737   -0.1194   23.8825 C   0  0  0  0  0  0  0  0  0  0  0  0
    8.6253   -0.7606   22.6923 C   0  0  1  0  0  0  0  0  0  0  0  0
    8.0876    2.2170   24.7795 C   0  0  0  0  0  0  0  0  0  0  0  0
    6.3072    0.3768   17.3417 N   0  0  0  0  0  0  0  0  0  0  0  0
    6.1098    1.6690   27.7768 N   0  0  0  0  0  0  0  0  0  0  0  0
    6.6541    1.1712   26.6076 N   0  0  0  0  0  0  0  0  0  0  0  0
    7.2305   -0.6898   20.7785 N   0  0  0  0  0  0  0  0  0  0  0  0
    8.6625    1.0133   24.4989 N   0  0  0  0  0  0  0  0  0  0  0  0
   10.3251    0.7340   26.1064 O   0  0  0  0  0  0  0  0  0  0  0  0
    6.1256   -2.7638   21.0990 O   0  0  0  0  0  0  0  0  0  0  0  0
    8.7812    1.0656   21.0999 O   0  0  0  0  0  0  0  0  0  0  0  0
    7.2381    3.3237   26.7802 O   0  0  0  0  0  0  0  0  0  0  0  0
   13.4287   -2.1485   21.1132 Cl  0  0  0  0  0  0  0  0  0  0  0  0
    2.5443    3.3508   20.6368 H   0  0  0  0  0  0  0  0  0  0  0  0
    3.5189    2.1137   22.5166 H   0  0  0  0  0  0  0  0  0  0  0  0
    3.3421    2.9744   18.3363 H   0  0  0  0  0  0  0  0  0  0  0  0
    5.3131    0.4893   22.1569 H   0  0  0  0  0  0  0  0  0  0  0  0
   12.5193    0.5899   24.9743 H   0  0  0  0  0  0  0  0  0  0  0  0
   13.9921   -0.5285   23.3850 H   0  0  0  0  0  0  0  0  0  0  0  0
   10.6066   -2.0252   21.2291 H   0  0  0  0  0  0  0  0  0  0  0  0
    4.9151    1.7511   16.7471 H   0  0  0  0  0  0  0  0  0  0  0  0
    7.6455   -0.9765   18.1038 H   0  0  0  0  0  0  0  0  0  0  0  0
    6.2571    3.6653   28.5926 H   0  0  0  0  0  0  0  0  0  0  0  0
    7.5414   -2.5801   23.3234 H   0  0  0  0  0  0  0  0  0  0  0  0
    8.7503   -2.8731   22.0498 H   0  0  0  0  0  0  0  0  0  0  0  0
    6.9287    0.3240   23.5694 H   0  0  0  0  0  0  0  0  0  0  0  0
    7.6686   -0.8487   24.6632 H   0  0  0  0  0  0  0  0  0  0  0  0
    7.4419    2.4995   23.9408 H   0  0  0  0  0  0  0  0  0  0  0  0
    8.8900    2.9600   24.8367 H   0  0  0  0  0  0  0  0  0  0  0  0
  1  2  2  0  0  0  0
  1  3  1  0  0  0  0
  2  4  1  0  0  0  0
  3 11  2  0  0  0  0
  4 12  2  0  0  0  0
  5  6  2  0  0  0  0
  5 13  1  0  0  0  0
  6 16  1  0  0  0  0
  7 14  1  0  0  0  0
  7 16  2  0  0  0  0
  8 11  1  0  0  0  0
  8 25  2  0  0  0  0
  9 15  2  0  0  0  0
  9 25  1  0  0  0  0
 10 26  2  0  0  0  0
 10 33  1  0  0  0  0
 11 12  1  0  0  0  0
 12 15  1  0  0  0  0
 13 14  2  0  0  0  0
 13 18  1  0  0  0  0
 14 23  1  6  0  0  0
 15 28  1  0  0  0  0
 16 34  1  0  0  0  0
 17 24  1  0  0  0  0
 17 27  2  0  0  0  0
 17 33  1  0  0  0  0
 18 29  1  0  0  0  0
 18 30  2  0  0  0  0
 19 21  1  0  0  0  0
 19 28  1  0  0  0  0
 19 31  2  0  0  0  0
 20 23  1  1  0  0  0
 20 28  1  0  0  0  0
 20 32  2  0  0  0  0
 21 23  1  1  0  0  0
 22 23  1  6  0  0  0
 22 29  1  0  0  0  0
 24 29  1  0  0  0  0
 26 27  1  0  0  0  0
  1 35  1  0  0  0  0
  2 36  1  0  0  0  0
  3 37  1  0  0  0  0
  4 38  1  0  0  0  0
  5 39  1  0  0  0  0
  6 40  1  0  0  0  0
  7 41  1  0  0  0  0
  8 42  1  0  0  0  0
  9 43  1  0  0  0  0
 10 44  1  0  0  0  0
 21 45  1  0  0  0  0
 21 46  1  0  0  0  0
 22 47  1  0  0  0  0
 22 48  1  0  0  0  0
 24 49  1  0  0  0  0
 24 50  1  0  0  0  0
M  END
> <scaffold>
tetrahydroisoquinoline-5spiro-isoquinoline

> <compound>
12_-111-3e02a1cd-1

> <compound_smiles>
c1ccc2c(c1)cncc2N3C(=O)C[C@@]4(C3=O)CN(C(=O)c5c4cc(cc5)Cl)Cc6nnco6

> <enantiomer_smiles>
c1ccc2c(c1)cncc2N3C(=O)C[C@@]4(C3=O)CN(C(=O)c5c4cc(cc5)Cl)Cc6nnco6

> <clash_score>
0

> <docking_score>
3.4028234663852886e+38

> <overlap_score>
1.011588454246521

> <MMFF_internal_energy>
129.09152999079564

> <docked_smiles>
c1ccc2c(c1)cncc2N3C(=O)C[C@@]4(C3=O)CN(C(=O)c5c4cc(cc5)Cl)Cc6nnco6

$$$$
MAT-POS-50a80394-6_1
  -OEChem-01042202313D

 64 68  0     1  0  0  0  0  0999 V2000
    3.3444    2.6278   20.4409 C   0  0  0  0  0  0  0  0  0  0  0  0
    3.8974    1.9290   21.5048 C   0  0  0  0  0  0  0  0  0  0  0  0
    3.7877    2.4205   19.1658 C   0  0  0  0  0  0  0  0  0  0  0  0
    4.8986    1.0232   21.2985 C   0  0  0  0  0  0  0  0  0  0  0  0
   12.0781    0.0316   24.1532 C   0  0  0  0  0  0  0  0  0  0  0  0
   12.9147   -0.6032   23.2559 C   0  0  0  0  0  0  0  0  0  0  0  0
   11.0005   -1.4332   22.0435 C   0  0  0  0  0  0  0  0  0  0  0  0
    5.3288    1.2339   17.6062 C   0  0  0  0  0  0  0  0  0  0  0  0
    6.8449   -0.2893   18.3747 C   0  0  0  0  0  0  0  0  0  0  0  0
    4.8238    1.4906   18.9051 C   0  0  0  0  0  0  0  0  0  0  0  0
    5.3995    0.7732   19.9944 C   0  0  0  0  0  0  0  0  0  0  0  0
   10.7056   -0.0626   23.9890 C   0  0  0  0  0  0  0  0  0  0  0  0
   10.1421   -0.7766   22.9242 C   0  0  0  0  0  0  0  0  0  0  0  0
    6.4452   -0.1472   19.6975 C   0  0  0  0  0  0  0  0  0  0  0  0
   12.3697   -1.3298   22.2224 C   0  0  0  0  0  0  0  0  0  0  0  0
    8.2504    0.0168   21.4265 C   0  0  0  0  0  0  0  0  0  0  0  0
    8.9609    3.4774   24.3277 C   0  0  0  0  0  0  0  0  0  0  0  0
    9.9496    0.5589   24.9527 C   0  0  0  0  0  0  0  0  0  0  0  0
    6.9880   -1.9367   21.3575 C   0  0  0  0  0  0  0  0  0  0  0  0
    7.8737   -0.1194   23.8825 C   0  0  0  0  0  0  0  0  0  0  0  0
    8.0155   -2.1541   22.4325 C   0  0  2  0  0  0  0  0  0  0  0  0
    8.6253   -0.7606   22.6923 C   0  0  3  0  0  0  0  0  0  0  0  0
    9.7134   -3.7747   23.3348 C   0  0  0  0  0  0  0  0  0  0  0  0
    8.2798   -4.4290   21.3802 C   0  0  0  0  0  0  0  0  0  0  0  0
   10.0581    5.6893   24.1250 C   0  0  0  0  0  0  0  0  0  0  0  0
    8.7456    2.1986   23.5580 C   0  0  0  0  0  0  0  0  0  0  0  0
    9.0023   -3.2768   22.0771 C   0  0  0  0  0  0  0  0  0  0  0  0
    6.3072    0.3768   17.3417 N   0  0  0  0  0  0  0  0  0  0  0  0
    7.2305   -0.6898   20.7785 N   0  0  0  0  0  0  0  0  0  0  0  0
    9.7164    4.3874   23.6035 N   0  0  0  0  0  0  0  0  0  0  0  0
    8.6625    1.0133   24.4989 N   0  3  3  0  0  0  0  0  0  0  0  0
    8.8291    1.0396   21.0735 O   0  0  0  0  0  0  0  0  0  0  0  0
    8.5128    3.6694   25.4549 O   0  0  0  0  0  0  0  0  0  0  0  0
   13.4303   -2.1471   21.1140 Cl  0  0  0  0  0  0  0  0  0  0  0  0
    2.5443    3.3508   20.6368 H   0  0  0  0  0  0  0  0  0  0  0  0
    3.5189    2.1137   22.5166 H   0  0  0  0  0  0  0  0  0  0  0  0
    3.3421    2.9744   18.3363 H   0  0  0  0  0  0  0  0  0  0  0  0
    5.3131    0.4893   22.1569 H   0  0  0  0  0  0  0  0  0  0  0  0
   12.5053    0.5852   24.9811 H   0  0  0  0  0  0  0  0  0  0  0  0
   13.9932   -0.5304   23.3875 H   0  0  0  0  0  0  0  0  0  0  0  0
   10.6207   -2.0360   21.2357 H   0  0  0  0  0  0  0  0  0  0  0  0
    4.9151    1.7511   16.7471 H   0  0  0  0  0  0  0  0  0  0  0  0
    7.6455   -0.9765   18.1038 H   0  0  0  0  0  0  0  0  0  0  0  0
    9.7369   -0.1162   25.8240 H   0  0  0  0  0  0  0  0  0  0  0  0
   10.4792    1.4525   25.3803 H   0  0  0  0  0  0  0  0  0  0  0  0
    7.0361   -2.7224   20.5614 H   0  0  0  0  0  0  0  0  0  0  0  0
    5.9497   -1.9859   21.7743 H   0  0  0  0  0  0  0  0  0  0  0  0
    6.9047    0.3195   23.5882 H   0  0  0  0  0  0  0  0  0  0  0  0
    7.6840   -0.8449   24.6928 H   0  0  0  0  0  0  0  0  0  0  0  0
    7.4685   -2.5182   23.3216 H   0  0  0  0  0  0  0  0  0  0  0  0
    9.0003   -4.1825   24.0596 H   0  0  0  0  0  0  0  0  0  0  0  0
   10.2599   -2.9591   23.8197 H   0  0  0  0  0  0  0  0  0  0  0  0
   10.4345   -4.5617   23.0899 H   0  0  0  0  0  0  0  0  0  0  0  0
    7.5087   -4.8633   22.0257 H   0  0  0  0  0  0  0  0  0  0  0  0
    8.9826   -5.2242   21.1099 H   0  0  0  0  0  0  0  0  0  0  0  0
    7.7960   -4.0834   20.4605 H   0  0  0  0  0  0  0  0  0  0  0  0
    9.2920    6.4185   23.8228 H   0  0  0  0  0  0  0  0  0  0  0  0
   10.1072    5.6431   25.2229 H   0  0  0  0  0  0  0  0  0  0  0  0
   11.0358    5.9986   23.7269 H   0  0  0  0  0  0  0  0  0  0  0  0
    9.5889    2.0083   22.8884 H   0  0  0  0  0  0  0  0  0  0  0  0
    7.8122    2.2485   22.9905 H   0  0  0  0  0  0  0  0  0  0  0  0
    9.7602   -2.8809   21.3887 H   0  0  0  0  0  0  0  0  0  0  0  0
   10.0654    4.1311   22.6844 H   0  0  0  0  0  0  0  0  0  0  0  0
    8.1100    1.3539   25.3118 H   0  0  0  0  0  0  0  0  0  0  0  0
  1  2  2  0  0  0  0
  1  3  1  0  0  0  0
  2  4  1  0  0  0  0
  3 10  2  0  0  0  0
  4 11  2  0  0  0  0
  5  6  2  0  0  0  0
  5 12  1  0  0  0  0
  6 15  1  0  0  0  0
  7 13  1  0  0  0  0
  7 15  2  0  0  0  0
  8 10  1  0  0  0  0
  8 28  2  0  0  0  0
  9 14  2  0  0  0  0
  9 28  1  0  0  0  0
 10 11  1  0  0  0  0
 11 14  1  0  0  0  0
 12 13  2  0  0  0  0
 12 18  1  0  0  0  0
 13 22  1  0  0  0  0
 14 29  1  0  0  0  0
 15 34  1  0  0  0  0
 16 22  1  0  0  0  0
 16 29  1  0  0  0  0
 16 32  2  0  0  0  0
 17 26  1  0  0  0  0
 17 30  1  0  0  0  0
 17 33  2  0  0  0  0
 18 31  1  0  0  0  0
 19 21  1  0  0  0  0
 19 29  1  0  0  0  0
 20 22  1  0  0  0  0
 20 31  1  0  0  0  0
 21 22  1  0  0  0  0
 21 27  1  1  0  0  0
 23 27  1  0  0  0  0
 24 27  1  0  0  0  0
 25 30  1  0  0  0  0
 26 31  1  0  0  0  0
  1 35  1  0  0  0  0
  2 36  1  0  0  0  0
  3 37  1  0  0  0  0
  4 38  1  0  0  0  0
  5 39  1  0  0  0  0
  6 40  1  0  0  0  0
  7 41  1  0  0  0  0
  8 42  1  0  0  0  0
  9 43  1  0  0  0  0
 18 44  1  0  0  0  0
 18 45  1  0  0  0  0
 19 46  1  0  0  0  0
 19 47  1  0  0  0  0
 20 48  1  0  0  0  0
 20 49  1  0  0  0  0
 21 50  1  0  0  0  0
 23 51  1  0  0  0  0
 23 52  1  0  0  0  0
 23 53  1  0  0  0  0
 24 54  1  0  0  0  0
 24 55  1  0  0  0  0
 24 56  1  0  0  0  0
 25 57  1  0  0  0  0
 25 58  1  0  0  0  0
 25 59  1  0  0  0  0
 26 60  1  0  0  0  0
 26 61  1  0  0  0  0
 27 62  1  0  0  0  0
 30 63  1  0  0  0  0
 31 64  1  0  0  0  0
M  CHG  1  31   1
M  END
> <scaffold>
tetrahydroisoquinoline-5spiro-isoquinoline

> <compound>
MAT-POS-50a80394-6

> <compound_smiles>
CC(C)C1CN(C(=O)C12CN(Cc3c2cc(cc3)Cl)CC(=O)NC)c4cncc5c4cccc5

> <enantiomer_smiles>
CC(C)[C@@H]1CN(C(=O)[C@]12C[N@@](Cc3c2cc(cc3)Cl)CC(=O)NC)c4cncc5c4cccc5

> <clash_score>
0.6918862932941121

> <docking_score>
3.4028234663852886e+38

> <overlap_score>
0.9883055686950684

> <MMFF_internal_energy>
242.7116688141896

> <docked_smiles>
CC(C)[C@@H]1CN(C(=O)[C@]12C[N@@H+](Cc3c2cc(cc3)Cl)CC(=O)NC)c4cncc5c4cccc5

$$$$
VLA-UNK-f702bf1c-5_1
  -OEChem-01042202313D

 58 63  0     1  0  0  0  0  0999 V2000
    3.3444    2.6278   20.4409 C   0  0  0  0  0  0  0  0  0  0  0  0
    3.8974    1.9290   21.5048 C   0  0  0  0  0  0  0  0  0  0  0  0
    3.7877    2.4205   19.1658 C   0  0  0  0  0  0  0  0  0  0  0  0
    4.8986    1.0232   21.2985 C   0  0  0  0  0  0  0  0  0  0  0  0
   12.0781    0.0316   24.1532 C   0  0  0  0  0  0  0  0  0  0  0  0
   12.9147   -0.6032   23.2559 C   0  0  0  0  0  0  0  0  0  0  0  0
   11.0005   -1.4332   22.0435 C   0  0  0  0  0  0  0  0  0  0  0  0
    5.3288    1.2339   17.6062 C   0  0  0  0  0  0  0  0  0  0  0  0
    6.8449   -0.2893   18.3747 C   0  0  0  0  0  0  0  0  0  0  0  0
    4.8238    1.4906   18.9051 C   0  0  0  0  0  0  0  0  0  0  0  0
    5.3995    0.7732   19.9944 C   0  0  0  0  0  0  0  0  0  0  0  0
   10.1421   -0.7766   22.9242 C   0  0  0  0  0  0  0  0  0  0  0  0
    6.4452   -0.1472   19.6975 C   0  0  0  0  0  0  0  0  0  0  0  0
   10.7056   -0.0626   23.9890 C   0  0  0  0  0  0  0  0  0  0  0  0
   12.3697   -1.3298   22.2224 C   0  0  0  0  0  0  0  0  0  0  0  0
   10.5850   -6.4163   21.0753 C   0  0  0  0  0  0  0  0  0  0  0  0
    8.2504    0.0168   21.4265 C   0  0  0  0  0  0  0  0  0  0  0  0
    6.9880   -1.9367   21.3575 C   0  0  0  0  0  0  0  0  0  0  0  0
    9.9774   -5.2812   20.2762 C   0  0  0  0  0  0  0  0  0  0  0  0
    8.8695   -4.5251   20.9931 C   0  0  0  0  0  0  0  0  0  0  0  0
    7.8737   -0.1194   23.8825 C   0  0  0  0  0  0  0  0  0  0  0  0
    9.6283   -5.4170   23.1740 C   0  0  0  0  0  0  0  0  0  0  0  0
    8.6625    1.0133   24.4989 C   0  0  0  0  0  0  0  0  0  0  0  0
    9.3254   -4.1391   22.3992 C   0  0  2  0  0  0  0  0  0  0  0  0
    8.6253   -0.7606   22.6923 C   0  0  2  0  0  0  0  0  0  0  0  0
    8.2670   -3.3056   23.1149 C   0  0  0  0  0  0  0  0  0  0  0  0
    6.3072    0.3768   17.3417 N   0  0  0  0  0  0  0  0  0  0  0  0
   10.4853   -6.3347   22.4462 N   0  0  0  0  0  0  0  0  0  0  0  0
    7.2305   -0.6898   20.7785 N   0  0  0  0  0  0  0  0  0  0  0  0
    8.0155   -2.1541   22.4325 N   0  0  0  0  0  0  0  0  0  0  0  0
   11.2059   -7.3185   20.5105 O   0  0  0  0  0  0  0  0  0  0  0  0
    8.8030    1.0413   21.0842 O   0  0  0  0  0  0  0  0  0  0  0  0
    6.1158   -2.7517   21.1386 O   0  0  0  0  0  0  0  0  0  0  0  0
    9.9496    0.5589   24.9527 O   0  0  0  0  0  0  0  0  0  0  0  0
   13.4278   -2.1472   21.1115 Cl  0  0  0  0  0  0  0  0  0  0  0  0
    2.5443    3.3508   20.6368 H   0  0  0  0  0  0  0  0  0  0  0  0
    3.5189    2.1137   22.5166 H   0  0  0  0  0  0  0  0  0  0  0  0
    3.3421    2.9744   18.3363 H   0  0  0  0  0  0  0  0  0  0  0  0
    5.3131    0.4893   22.1569 H   0  0  0  0  0  0  0  0  0  0  0  0
   12.5017    0.6065   24.9715 H   0  0  0  0  0  0  0  0  0  0  0  0
   13.9924   -0.5157   23.3773 H   0  0  0  0  0  0  0  0  0  0  0  0
   10.6031   -2.0252   21.2295 H   0  0  0  0  0  0  0  0  0  0  0  0
    4.9151    1.7511   16.7471 H   0  0  0  0  0  0  0  0  0  0  0  0
    7.6455   -0.9765   18.1038 H   0  0  0  0  0  0  0  0  0  0  0  0
   10.7934   -4.5924   20.0261 H   0  0  0  0  0  0  0  0  0  0  0  0
    9.5882   -5.6908   19.3374 H   0  0  0  0  0  0  0  0  0  0  0  0
    8.6053   -3.6318   20.4152 H   0  0  0  0  0  0  0  0  0  0  0  0
    7.9700   -5.1518   21.0468 H   0  0  0  0  0  0  0  0  0  0  0  0
    7.7144   -0.8754   24.6692 H   0  0  0  0  0  0  0  0  0  0  0  0
    6.8760    0.2356   23.5741 H   0  0  0  0  0  0  0  0  0  0  0  0
   10.1233   -5.1898   24.1242 H   0  0  0  0  0  0  0  0  0  0  0  0
    8.7079   -5.9670   23.4024 H   0  0  0  0  0  0  0  0  0  0  0  0
    8.8025    1.8559   23.8153 H   0  0  0  0  0  0  0  0  0  0  0  0
    8.1356    1.3957   25.3777 H   0  0  0  0  0  0  0  0  0  0  0  0
   10.2343   -3.5282   22.3346 H   0  0  0  0  0  0  0  0  0  0  0  0
    7.3396   -3.8921   23.1917 H   0  0  0  0  0  0  0  0  0  0  0  0
    8.6279   -3.0563   24.1237 H   0  0  0  0  0  0  0  0  0  0  0  0
   11.0590   -6.9694   22.9933 H   0  0  0  0  0  0  0  0  0  0  0  0
  1  2  2  0  0  0  0
  1  3  1  0  0  0  0
  2  4  1  0  0  0  0
  3 10  2  0  0  0  0
  4 11  2  0  0  0  0
  5  6  2  0  0  0  0
  5 14  1  0  0  0  0
  6 15  1  0  0  0  0
  7 12  1  0  0  0  0
  7 15  2  0  0  0  0
  8 10  1  0  0  0  0
  8 27  2  0  0  0  0
  9 13  2  0  0  0  0
  9 27  1  0  0  0  0
 10 11  1  0  0  0  0
 11 13  1  0  0  0  0
 12 14  2  0  0  0  0
 12 25  1  6  0  0  0
 13 29  1  0  0  0  0
 14 34  1  0  0  0  0
 15 35  1  0  0  0  0
 16 19  1  0  0  0  0
 16 28  1  0  0  0  0
 16 31  2  0  0  0  0
 17 25  1  1  0  0  0
 17 29  1  0  0  0  0
 17 32  2  0  0  0  0
 18 29  1  0  0  0  0
 18 30  1  0  0  0  0
 18 33  2  0  0  0  0
 19 20  1  0  0  0  0
 20 24  1  0  0  0  0
 21 23  1  0  0  0  0
 21 25  1  1  0  0  0
 22 24  1  0  0  0  0
 22 28  1  0  0  0  0
 23 34  1  0  0  0  0
 24 26  1  1  0  0  0
 25 30  1  6  0  0  0
 26 30  1  0  0  0  0
  1 36  1  0  0  0  0
  2 37  1  0  0  0  0
  3 38  1  0  0  0  0
  4 39  1  0  0  0  0
  5 40  1  0  0  0  0
  6 41  1  0  0  0  0
  7 42  1  0  0  0  0
  8 43  1  0  0  0  0
  9 44  1  0  0  0  0
 19 45  1  0  0  0  0
 19 46  1  0  0  0  0
 20 47  1  0  0  0  0
 20 48  1  0  0  0  0
 21 49  1  0  0  0  0
 21 50  1  0  0  0  0
 22 51  1  0  0  0  0
 22 52  1  0  0  0  0
 23 53  1  0  0  0  0
 23 54  1  0  0  0  0
 24 55  1  0  0  0  0
 26 56  1  0  0  0  0
 26 57  1  0  0  0  0
 28 58  1  0  0  0  0
M  END
> <scaffold>
chromane-5spiro-isoquinoline

> <compound>
VLA-UNK-f702bf1c-5

> <compound_smiles>
c1ccc2c(c1)cncc2N3C(=O)[C@@]4(CCOc5c4cc(cc5)Cl)N(C3=O)CC6CCC(=O)NC6

> <enantiomer_smiles>
c1ccc2c(c1)cncc2N3C(=O)[C@@]4(CCOc5c4cc(cc5)Cl)N(C3=O)C[C@@H]6CCC(=O)NC6

> <clash_score>
8.772870159520384

> <docking_score>
3.4028234663852886e+38

> <overlap_score>
1.0

> <MMFF_internal_energy>
63.27326887375644

> <docked_smiles>
c1ccc2c(c1)cncc2N3C(=O)[C@@]4(CCOc5c4cc(cc5)Cl)N(C3=O)C[C@@H]6CCC(=O)NC6

$$$$
PET-UNK-6af7266d-4_1
  -OEChem-01042202313D

 50 55  0     1  0  0  0  0  0999 V2000
    3.3444    2.6278   20.4409 C   0  0  0  0  0  0  0  0  0  0  0  0
    3.8974    1.9290   21.5048 C   0  0  0  0  0  0  0  0  0  0  0  0
    3.7877    2.4205   19.1658 C   0  0  0  0  0  0  0  0  0  0  0  0
    4.8986    1.0232   21.2985 C   0  0  0  0  0  0  0  0  0  0  0  0
   12.0781    0.0316   24.1532 C   0  0  0  0  0  0  0  0  0  0  0  0
   12.9147   -0.6032   23.2559 C   0  0  0  0  0  0  0  0  0  0  0  0
   11.0005   -1.4332   22.0435 C   0  0  0  0  0  0  0  0  0  0  0  0
    5.3288    1.2339   17.6062 C   0  0  0  0  0  0  0  0  0  0  0  0
    6.8449   -0.2893   18.3747 C   0  0  0  0  0  0  0  0  0  0  0  0
    6.1874    2.5660   28.1054 C   0  0  0  0  0  0  0  0  0  0  0  0
    4.8238    1.4906   18.9051 C   0  0  0  0  0  0  0  0  0  0  0  0
    5.3995    0.7732   19.9944 C   0  0  0  0  0  0  0  0  0  0  0  0
   10.7056   -0.0626   23.9890 C   0  0  0  0  0  0  0  0  0  0  0  0
   10.1421   -0.7766   22.9242 C   0  0  0  0  0  0  0  0  0  0  0  0
    6.4452   -0.1472   19.6975 C   0  0  0  0  0  0  0  0  0  0  0  0
   12.3697   -1.3298   22.2224 C   0  0  0  0  0  0  0  0  0  0  0  0
    7.2893    2.1435   26.0623 C   0  0  0  0  0  0  0  0  0  0  0  0
    9.9496    0.5589   24.9527 C   0  0  0  0  0  0  0  0  0  0  0  0
    6.9880   -1.9367   21.3575 C   0  0  0  0  0  0  0  0  0  0  0  0
    8.2504    0.0168   21.4265 C   0  0  0  0  0  0  0  0  0  0  0  0
    8.0155   -2.1541   22.4325 C   0  0  0  0  0  0  0  0  0  0  0  0
    7.8737   -0.1194   23.8825 C   0  0  0  0  0  0  0  0  0  0  0  0
    8.6253   -0.7606   22.6923 C   0  0  3  0  0  0  0  0  0  0  0  0
    8.0823    2.2144   24.7894 C   0  0  0  0  0  0  0  0  0  0  0  0
    6.3072    0.3768   17.3417 N   0  0  0  0  0  0  0  0  0  0  0  0
    6.0293    1.3193   27.7147 N   0  0  0  0  0  0  0  0  0  0  0  0
    6.6765    1.0713   26.5168 N   0  0  0  0  0  0  0  0  0  0  0  0
    7.2305   -0.6898   20.7785 N   0  0  0  0  0  0  0  0  0  0  0  0
    8.6625    1.0133   24.4989 N   0  0  0  0  0  0  0  0  0  0  0  0
   10.3273    0.7360   26.1061 O   0  0  0  0  0  0  0  0  0  0  0  0
    6.1283   -2.7644   21.0979 O   0  0  0  0  0  0  0  0  0  0  0  0
    8.7920    1.0603   21.1002 O   0  0  0  0  0  0  0  0  0  0  0  0
    7.1303    3.5360   27.0509 S   0  0  0  0  0  0  0  0  0  0  0  0
   13.4283   -2.1312   21.1004 Cl  0  0  0  0  0  0  0  0  0  0  0  0
    2.5443    3.3508   20.6368 H   0  0  0  0  0  0  0  0  0  0  0  0
    3.5189    2.1137   22.5166 H   0  0  0  0  0  0  0  0  0  0  0  0
    3.3421    2.9744   18.3363 H   0  0  0  0  0  0  0  0  0  0  0  0
    5.3131    0.4893   22.1569 H   0  0  0  0  0  0  0  0  0  0  0  0
   12.5198    0.5961   24.9699 H   0  0  0  0  0  0  0  0  0  0  0  0
   13.9920   -0.5097   23.3723 H   0  0  0  0  0  0  0  0  0  0  0  0
   10.6069   -2.0138   21.2208 H   0  0  0  0  0  0  0  0  0  0  0  0
    4.9151    1.7511   16.7471 H   0  0  0  0  0  0  0  0  0  0  0  0
    7.6455   -0.9765   18.1038 H   0  0  0  0  0  0  0  0  0  0  0  0
    5.7568    2.9505   29.0192 H   0  0  0  0  0  0  0  0  0  0  0  0
    7.4972   -2.5593   23.3105 H   0  0  0  0  0  0  0  0  0  0  0  0
    8.7600   -2.8848   22.0982 H   0  0  0  0  0  0  0  0  0  0  0  0
    6.9062    0.2736   23.5772 H   0  0  0  0  0  0  0  0  0  0  0  0
    7.7145   -0.8339   24.6899 H   0  0  0  0  0  0  0  0  0  0  0  0
    7.4394    2.4993   23.9494 H   0  0  0  0  0  0  0  0  0  0  0  0
    8.8752    2.9663   24.8616 H   0  0  0  0  0  0  0  0  0  0  0  0
  1  2  2  0  0  0  0
  1  3  1  0  0  0  0
  2  4  1  0  0  0  0
  3 11  2  0  0  0  0
  4 12  2  0  0  0  0
  5  6  2  0  0  0  0
  5 13  1  0  0  0  0
  6 16  1  0  0  0  0
  7 14  1  0  0  0  0
  7 16  2  0  0  0  0
  8 11  1  0  0  0  0
  8 25  2  0  0  0  0
  9 15  2  0  0  0  0
  9 25  1  0  0  0  0
 10 26  2  0  0  0  0
 10 33  1  0  0  0  0
 11 12  1  0  0  0  0
 12 15  1  0  0  0  0
 13 14  2  0  0  0  0
 13 18  1  0  0  0  0
 14 23  1  0  0  0  0
 15 28  1  0  0  0  0
 16 34  1  0  0  0  0
 17 24  1  0  0  0  0
 17 27  2  0  0  0  0
 17 33  1  0  0  0  0
 18 29  1  0  0  0  0
 18 30  2  0  0  0  0
 19 21  1  0  0  0  0
 19 28  1  0  0  0  0
 19 31  2  0  0  0  0
 20 23  1  0  0  0  0
 20 28  1  0  0  0  0
 20 32  2  0  0  0  0
 21 23  1  0  0  0  0
 22 23  1  0  0  0  0
 22 29  1  0  0  0  0
 24 29  1  0  0  0  0
 26 27  1  0  0  0  0
  1 35  1  0  0  0  0
  2 36  1  0  0  0  0
  3 37  1  0  0  0  0
  4 38  1  0  0  0  0
  5 39  1  0  0  0  0
  6 40  1  0  0  0  0
  7 41  1  0  0  0  0
  8 42  1  0  0  0  0
  9 43  1  0  0  0  0
 10 44  1  0  0  0  0
 21 45  1  0  0  0  0
 21 46  1  0  0  0  0
 22 47  1  0  0  0  0
 22 48  1  0  0  0  0
 24 49  1  0  0  0  0
 24 50  1  0  0  0  0
M  END
> <scaffold>
tetrahydroisoquinoline-5spiro-isoquinoline

> <compound>
PET-UNK-6af7266d-4

> <compound_smiles>
c1ccc2c(c1)cncc2N3C(=O)CC4(C3=O)CN(C(=O)c5c4cc(cc5)Cl)Cc6nncs6

> <enantiomer_smiles>
c1ccc2c(c1)cncc2N3C(=O)C[C@]4(C3=O)CN(C(=O)c5c4cc(cc5)Cl)Cc6nncs6

> <clash_score>
0

> <docking_score>
3.4028234663852886e+38

> <overlap_score>
1.0126571655273438

> <MMFF_internal_energy>
121.15722162618587

> <docked_smiles>
c1ccc2c(c1)cncc2N3C(=O)C[C@]4(C3=O)CN(C(=O)c5c4cc(cc5)Cl)Cc6nncs6

$$$$
PET-UNK-94036022-10_1
  -OEChem-01042202313D

 57 62  0     1  0  0  0  0  0999 V2000
    3.3444    2.6278   20.4409 C   0  0  0  0  0  0  0  0  0  0  0  0
    3.8974    1.9290   21.5048 C   0  0  0  0  0  0  0  0  0  0  0  0
    3.7877    2.4205   19.1658 C   0  0  0  0  0  0  0  0  0  0  0  0
    4.8986    1.0232   21.2985 C   0  0  0  0  0  0  0  0  0  0  0  0
   12.0781    0.0316   24.1532 C   0  0  0  0  0  0  0  0  0  0  0  0
   12.9147   -0.6032   23.2559 C   0  0  0  0  0  0  0  0  0  0  0  0
   11.0005   -1.4332   22.0435 C   0  0  0  0  0  0  0  0  0  0  0  0
    5.3288    1.2339   17.6062 C   0  0  0  0  0  0  0  0  0  0  0  0
    6.8449   -0.2893   18.3747 C   0  0  0  0  0  0  0  0  0  0  0  0
    4.8238    1.4906   18.9051 C   0  0  0  0  0  0  0  0  0  0  0  0
    5.3995    0.7732   19.9944 C   0  0  0  0  0  0  0  0  0  0  0  0
   10.7056   -0.0626   23.9890 C   0  0  0  0  0  0  0  0  0  0  0  0
   10.1421   -0.7766   22.9242 C   0  0  0  0  0  0  0  0  0  0  0  0
    6.4452   -0.1472   19.6975 C   0  0  0  0  0  0  0  0  0  0  0  0
   12.3697   -1.3298   22.2224 C   0  0  0  0  0  0  0  0  0  0  0  0
    8.2504    0.0168   21.4265 C   0  0  0  0  0  0  0  0  0  0  0  0
    9.9496    0.5589   24.9527 C   0  0  0  0  0  0  0  0  0  0  0  0
    5.8727    0.3361   28.8003 C   0  0  0  0  0  0  0  0  0  0  0  0
    5.0909    0.7931   27.6027 C   0  0  0  0  0  0  0  0  0  0  0  0
    8.0155   -2.1541   22.4325 C   0  0  0  0  0  0  0  0  0  0  0  0
    6.9880   -1.9367   21.3575 C   0  0  0  0  0  0  0  0  0  0  0  0
    7.8737   -0.1194   23.8825 C   0  0  0  0  0  0  0  0  0  0  0  0
    8.6253   -0.7606   22.6923 C   0  0  3  0  0  0  0  0  0  0  0  0
    6.4702    1.3516   27.8565 C   0  0  0  0  0  0  0  0  0  0  0  0
    7.6088    0.9304   26.9546 C   0  0  0  0  0  0  0  0  0  0  0  0
    6.3072    0.3768   17.3417 N   0  0  0  0  0  0  0  0  0  0  0  0
    7.2305   -0.6898   20.7785 N   0  0  0  0  0  0  0  0  0  0  0  0
    8.6625    1.0133   24.4989 N   0  0  3  0  0  0  0  0  0  0  0  0
    8.8314    1.0394   21.0790 O   0  0  0  0  0  0  0  0  0  0  0  0
    6.4559    2.2241   24.9990 O   0  0  0  0  0  0  0  0  0  0  0  0
    8.6119    3.1278   25.9583 O   0  0  0  0  0  0  0  0  0  0  0  0
    7.7725    2.0180   25.5623 S   0  0  0  0  0  0  0  0  0  0  0  0
   13.4285   -2.1410   21.1076 Cl  0  0  0  0  0  0  0  0  0  0  0  0
    6.5645    3.0267   28.4343 Cl  0  0  0  0  0  0  0  0  0  0  0  0
    2.5443    3.3508   20.6368 H   0  0  0  0  0  0  0  0  0  0  0  0
    3.5189    2.1137   22.5166 H   0  0  0  0  0  0  0  0  0  0  0  0
    3.3421    2.9744   18.3363 H   0  0  0  0  0  0  0  0  0  0  0  0
    5.3131    0.4893   22.1569 H   0  0  0  0  0  0  0  0  0  0  0  0
   12.5038    0.5986   24.9731 H   0  0  0  0  0  0  0  0  0  0  0  0
   13.9925   -0.5165   23.3773 H   0  0  0  0  0  0  0  0  0  0  0  0
   10.6052   -2.0169   21.2237 H   0  0  0  0  0  0  0  0  0  0  0  0
    4.9151    1.7511   16.7471 H   0  0  0  0  0  0  0  0  0  0  0  0
    7.6455   -0.9765   18.1038 H   0  0  0  0  0  0  0  0  0  0  0  0
    9.7866   -0.1187   25.8304 H   0  0  0  0  0  0  0  0  0  0  0  0
   10.4816    1.4567   25.3600 H   0  0  0  0  0  0  0  0  0  0  0  0
    5.5331    0.6634   29.7759 H   0  0  0  0  0  0  0  0  0  0  0  0
    6.2637   -0.6746   28.7891 H   0  0  0  0  0  0  0  0  0  0  0  0
    4.9592    0.0887   26.7898 H   0  0  0  0  0  0  0  0  0  0  0  0
    4.2288    1.4259   27.7778 H   0  0  0  0  0  0  0  0  0  0  0  0
    7.5167   -2.5459   23.3332 H   0  0  0  0  0  0  0  0  0  0  0  0
    8.7666   -2.9029   22.1426 H   0  0  0  0  0  0  0  0  0  0  0  0
    7.0601   -2.7250   20.5715 H   0  0  0  0  0  0  0  0  0  0  0  0
    5.9530   -1.9963   21.7709 H   0  0  0  0  0  0  0  0  0  0  0  0
    6.8882    0.2643   23.5640 H   0  0  0  0  0  0  0  0  0  0  0  0
    7.6667   -0.8657   24.6729 H   0  0  0  0  0  0  0  0  0  0  0  0
    7.4436   -0.0759   26.5599 H   0  0  0  0  0  0  0  0  0  0  0  0
    8.5609    0.9485   27.4918 H   0  0  0  0  0  0  0  0  0  0  0  0
  1  2  2  0  0  0  0
  1  3  1  0  0  0  0
  2  4  1  0  0  0  0
  3 10  2  0  0  0  0
  4 11  2  0  0  0  0
  5  6  2  0  0  0  0
  5 12  1  0  0  0  0
  6 15  1  0  0  0  0
  7 13  1  0  0  0  0
  7 15  2  0  0  0  0
  8 10  1  0  0  0  0
  8 26  2  0  0  0  0
  9 14  2  0  0  0  0
  9 26  1  0  0  0  0
 10 11  1  0  0  0  0
 11 14  1  0  0  0  0
 12 13  2  0  0  0  0
 12 17  1  0  0  0  0
 13 23  1  0  0  0  0
 14 27  1  0  0  0  0
 15 33  1  0  0  0  0
 16 23  1  0  0  0  0
 16 27  1  0  0  0  0
 16 29  2  0  0  0  0
 17 28  1  0  0  0  0
 18 19  1  0  0  0  0
 18 24  1  0  0  0  0
 19 24  1  0  0  0  0
 20 21  1  0  0  0  0
 20 23  1  0  0  0  0
 21 27  1  0  0  0  0
 22 23  1  0  0  0  0
 22 28  1  0  0  0  0
 24 25  1  0  0  0  0
 24 34  1  0  0  0  0
 25 32  1  0  0  0  0
 28 32  1  0  0  0  0
 30 32  2  0  0  0  0
 31 32  2  0  0  0  0
  1 35  1  0  0  0  0
  2 36  1  0  0  0  0
  3 37  1  0  0  0  0
  4 38  1  0  0  0  0
  5 39  1  0  0  0  0
  6 40  1  0  0  0  0
  7 41  1  0  0  0  0
  8 42  1  0  0  0  0
  9 43  1  0  0  0  0
 17 44  1  0  0  0  0
 17 45  1  0  0  0  0
 18 46  1  0  0  0  0
 18 47  1  0  0  0  0
 19 48  1  0  0  0  0
 19 49  1  0  0  0  0
 20 50  1  0  0  0  0
 20 51  1  0  0  0  0
 21 52  1  0  0  0  0
 21 53  1  0  0  0  0
 22 54  1  0  0  0  0
 22 55  1  0  0  0  0
 25 56  1  0  0  0  0
 25 57  1  0  0  0  0
M  END
> <scaffold>
tetrahydroisoquinoline-5spiro-isoquinoline

> <compound>
PET-UNK-94036022-10

> <compound_smiles>
c1ccc2c(c1)cncc2N3CCC4(C3=O)CN(Cc5c4cc(cc5)Cl)S(=O)(=O)CC6(CC6)Cl

> <enantiomer_smiles>
c1ccc2c(c1)cncc2N3CC[C@]4(C3=O)C[N@](Cc5c4cc(cc5)Cl)S(=O)(=O)CC6(CC6)Cl

> <clash_score>
0

> <docking_score>
3.4028234663852886e+38

> <overlap_score>
0.9722678065299988

> <MMFF_internal_energy>
112.58494435362975

> <docked_smiles>
c1ccc2c(c1)cncc2N3CC[C@]4(C3=O)C[N@](Cc5c4cc(cc5)Cl)S(=O)(=O)CC6(CC6)Cl

$$$$
EDJ-MED-8bb691af-6_1
  -OEChem-01042202313D

 58 63  0     1  0  0  0  0  0999 V2000
    6.5923    2.6670   28.4298 C   0  0  0  0  0  0  0  0  0  0  0  0
    3.3444    2.6278   20.4409 C   0  0  0  0  0  0  0  0  0  0  0  0
    3.8974    1.9290   21.5048 C   0  0  0  0  0  0  0  0  0  0  0  0
    3.7877    2.4205   19.1658 C   0  0  0  0  0  0  0  0  0  0  0  0
    4.8986    1.0232   21.2985 C   0  0  0  0  0  0  0  0  0  0  0  0
   12.0781    0.0316   24.1532 C   0  0  0  0  0  0  0  0  0  0  0  0
   12.9147   -0.6032   23.2559 C   0  0  0  0  0  0  0  0  0  0  0  0
   11.0005   -1.4332   22.0435 C   0  0  0  0  0  0  0  0  0  0  0  0
    5.3288    1.2339   17.6062 C   0  0  0  0  0  0  0  0  0  0  0  0
    6.8449   -0.2893   18.3747 C   0  0  0  0  0  0  0  0  0  0  0  0
    4.8238    1.4906   18.9051 C   0  0  0  0  0  0  0  0  0  0  0  0
    5.3995    0.7732   19.9944 C   0  0  0  0  0  0  0  0  0  0  0  0
   10.7056   -0.0626   23.9890 C   0  0  0  0  0  0  0  0  0  0  0  0
   10.1421   -0.7766   22.9242 C   0  0  0  0  0  0  0  0  0  0  0  0
    6.4452   -0.1472   19.6975 C   0  0  0  0  0  0  0  0  0  0  0  0
   12.3697   -1.3298   22.2224 C   0  0  0  0  0  0  0  0  0  0  0  0
    8.2504    0.0168   21.4265 C   0  0  0  0  0  0  0  0  0  0  0  0
    9.9496    0.5589   24.9527 C   0  0  0  0  0  0  0  0  0  0  0  0
    5.7974    0.2895   28.6968 C   0  0  0  0  0  0  0  0  0  0  0  0
    5.0772    0.8711   27.5163 C   0  0  0  0  0  0  0  0  0  0  0  0
    8.0155   -2.1541   22.4325 C   0  0  0  0  0  0  0  0  0  0  0  0
    6.9880   -1.9367   21.3575 C   0  0  0  0  0  0  0  0  0  0  0  0
    7.8737   -0.1194   23.8825 C   0  0  0  0  0  0  0  0  0  0  0  0
    6.4702    1.3516   27.8565 C   0  0  0  0  0  0  0  0  0  0  0  0
    8.6253   -0.7606   22.6923 C   0  0  3  0  0  0  0  0  0  0  0  0
    7.6088    0.9304   26.9546 C   0  0  0  0  0  0  0  0  0  0  0  0
    6.6907    3.7268   28.8917 N   0  0  0  0  0  0  0  0  0  0  0  0
    6.3072    0.3768   17.3417 N   0  0  0  0  0  0  0  0  0  0  0  0
    7.2305   -0.6898   20.7785 N   0  0  0  0  0  0  0  0  0  0  0  0
    8.6625    1.0133   24.4989 N   0  0  3  0  0  0  0  0  0  0  0  0
    8.8314    1.0394   21.0790 O   0  0  0  0  0  0  0  0  0  0  0  0
    6.4559    2.2241   24.9990 O   0  0  0  0  0  0  0  0  0  0  0  0
    8.6119    3.1278   25.9583 O   0  0  0  0  0  0  0  0  0  0  0  0
    7.7725    2.0180   25.5623 S   0  0  0  0  0  0  0  0  0  0  0  0
   13.4285   -2.1410   21.1076 Cl  0  0  0  0  0  0  0  0  0  0  0  0
    2.5443    3.3508   20.6368 H   0  0  0  0  0  0  0  0  0  0  0  0
    3.5189    2.1137   22.5166 H   0  0  0  0  0  0  0  0  0  0  0  0
    3.3421    2.9744   18.3363 H   0  0  0  0  0  0  0  0  0  0  0  0
    5.3131    0.4893   22.1569 H   0  0  0  0  0  0  0  0  0  0  0  0
   12.5038    0.5986   24.9731 H   0  0  0  0  0  0  0  0  0  0  0  0
   13.9925   -0.5165   23.3773 H   0  0  0  0  0  0  0  0  0  0  0  0
   10.6052   -2.0169   21.2237 H   0  0  0  0  0  0  0  0  0  0  0  0
    4.9151    1.7511   16.7471 H   0  0  0  0  0  0  0  0  0  0  0  0
    7.6455   -0.9765   18.1038 H   0  0  0  0  0  0  0  0  0  0  0  0
    9.7866   -0.1187   25.8304 H   0  0  0  0  0  0  0  0  0  0  0  0
   10.4816    1.4567   25.3600 H   0  0  0  0  0  0  0  0  0  0  0  0
    5.4358    0.5518   29.6847 H   0  0  0  0  0  0  0  0  0  0  0  0
    6.1481   -0.7331   28.6181 H   0  0  0  0  0  0  0  0  0  0  0  0
    4.9448    0.2375   26.6469 H   0  0  0  0  0  0  0  0  0  0  0  0
    4.2331    1.5218   27.7145 H   0  0  0  0  0  0  0  0  0  0  0  0
    7.5167   -2.5459   23.3332 H   0  0  0  0  0  0  0  0  0  0  0  0
    8.7666   -2.9029   22.1426 H   0  0  0  0  0  0  0  0  0  0  0  0
    7.0601   -2.7250   20.5715 H   0  0  0  0  0  0  0  0  0  0  0  0
    5.9530   -1.9963   21.7709 H   0  0  0  0  0  0  0  0  0  0  0  0
    6.8882    0.2643   23.5640 H   0  0  0  0  0  0  0  0  0  0  0  0
    7.6667   -0.8657   24.6729 H   0  0  0  0  0  0  0  0  0  0  0  0
    7.4436   -0.0759   26.5599 H   0  0  0  0  0  0  0  0  0  0  0  0
    8.5609    0.9485   27.4918 H   0  0  0  0  0  0  0  0  0  0  0  0
  1 24  1  0  0  0  0
  1 27  3  0  0  0  0
  2  3  2  0  0  0  0
  2  4  1  0  0  0  0
  3  5  1  0  0  0  0
  4 11  2  0  0  0  0
  5 12  2  0  0  0  0
  6  7  2  0  0  0  0
  6 13  1  0  0  0  0
  7 16  1  0  0  0  0
  8 14  1  0  0  0  0
  8 16  2  0  0  0  0
  9 11  1  0  0  0  0
  9 28  2  0  0  0  0
 10 15  2  0  0  0  0
 10 28  1  0  0  0  0
 11 12  1  0  0  0  0
 12 15  1  0  0  0  0
 13 14  2  0  0  0  0
 13 18  1  0  0  0  0
 14 25  1  0  0  0  0
 15 29  1  0  0  0  0
 16 35  1  0  0  0  0
 17 25  1  0  0  0  0
 17 29  1  0  0  0  0
 17 31  2  0  0  0  0
 18 30  1  0  0  0  0
 19 20  1  0  0  0  0
 19 24  1  0  0  0  0
 20 24  1  0  0  0  0
 21 22  1  0  0  0  0
 21 25  1  0  0  0  0
 22 29  1  0  0  0  0
 23 25  1  0  0  0  0
 23 30  1  0  0  0  0
 24 26  1  0  0  0  0
 26 34  1  0  0  0  0
 30 34  1  0  0  0  0
 32 34  2  0  0  0  0
 33 34  2  0  0  0  0
  2 36  1  0  0  0  0
  3 37  1  0  0  0  0
  4 38  1  0  0  0  0
  5 39  1  0  0  0  0
  6 40  1  0  0  0  0
  7 41  1  0  0  0  0
  8 42  1  0  0  0  0
  9 43  1  0  0  0  0
 10 44  1  0  0  0  0
 18 45  1  0  0  0  0
 18 46  1  0  0  0  0
 19 47  1  0  0  0  0
 19 48  1  0  0  0  0
 20 49  1  0  0  0  0
 20 50  1  0  0  0  0
 21 51  1  0  0  0  0
 21 52  1  0  0  0  0
 22 53  1  0  0  0  0
 22 54  1  0  0  0  0
 23 55  1  0  0  0  0
 23 56  1  0  0  0  0
 26 57  1  0  0  0  0
 26 58  1  0  0  0  0
M  END
> <scaffold>
tetrahydroisoquinoline-5spiro-isoquinoline

> <compound>
EDJ-MED-8bb691af-6

> <compound_smiles>
c1ccc2c(c1)cncc2N3CCC4(C3=O)CN(Cc5c4cc(cc5)Cl)S(=O)(=O)CC6(CC6)C#N

> <enantiomer_smiles>
c1ccc2c(c1)cncc2N3CC[C@]4(C3=O)C[N@](Cc5c4cc(cc5)Cl)S(=O)(=O)CC6(CC6)C#N

> <clash_score>
0

> <docking_score>
3.4028234663852886e+38

> <overlap_score>
0.9701363444328308

> <MMFF_internal_energy>
115.58179085172836

> <docked_smiles>
c1ccc2c(c1)cncc2N3CC[C@]4(C3=O)C[N@](Cc5c4cc(cc5)Cl)S(=O)(=O)CC6(CC6)C#N

$$$$
VLA-UNK-f702bf1c-5_2
  -OEChem-01042202313D

 58 63  0     1  0  0  0  0  0999 V2000
    3.3444    2.6278   20.4409 C   0  0  0  0  0  0  0  0  0  0  0  0
    3.8974    1.9290   21.5048 C   0  0  0  0  0  0  0  0  0  0  0  0
    3.7877    2.4205   19.1658 C   0  0  0  0  0  0  0  0  0  0  0  0
    4.8986    1.0232   21.2985 C   0  0  0  0  0  0  0  0  0  0  0  0
   12.0781    0.0316   24.1532 C   0  0  0  0  0  0  0  0  0  0  0  0
   12.9147   -0.6032   23.2559 C   0  0  0  0  0  0  0  0  0  0  0  0
   11.0005   -1.4332   22.0435 C   0  0  0  0  0  0  0  0  0  0  0  0
    5.3288    1.2339   17.6062 C   0  0  0  0  0  0  0  0  0  0  0  0
    6.8449   -0.2893   18.3747 C   0  0  0  0  0  0  0  0  0  0  0  0
    4.8238    1.4906   18.9051 C   0  0  0  0  0  0  0  0  0  0  0  0
    5.3995    0.7732   19.9944 C   0  0  0  0  0  0  0  0  0  0  0  0
   10.1421   -0.7766   22.9242 C   0  0  0  0  0  0  0  0  0  0  0  0
    6.4452   -0.1472   19.6975 C   0  0  0  0  0  0  0  0  0  0  0  0
   10.7056   -0.0626   23.9890 C   0  0  0  0  0  0  0  0  0  0  0  0
   12.3697   -1.3298   22.2224 C   0  0  0  0  0  0  0  0  0  0  0  0
   10.5191   -6.3994   20.9811 C   0  0  0  0  0  0  0  0  0  0  0  0
    8.2504    0.0168   21.4265 C   0  0  0  0  0  0  0  0  0  0  0  0
    6.9880   -1.9367   21.3575 C   0  0  0  0  0  0  0  0  0  0  0  0
   10.7318   -6.2007   22.4673 C   0  0  0  0  0  0  0  0  0  0  0  0
    9.6203   -5.4297   23.1610 C   0  0  0  0  0  0  0  0  0  0  0  0
    7.8737   -0.1194   23.8825 C   0  0  0  0  0  0  0  0  0  0  0  0
    8.8714   -4.4974   20.9877 C   0  0  0  0  0  0  0  0  0  0  0  0
    8.6625    1.0133   24.4989 C   0  0  0  0  0  0  0  0  0  0  0  0
    9.3259   -4.1395   22.3988 C   0  0  1  0  0  0  0  0  0  0  0  0
    8.6253   -0.7606   22.6923 C   0  0  2  0  0  0  0  0  0  0  0  0
    8.2670   -3.3056   23.1149 C   0  0  0  0  0  0  0  0  0  0  0  0
    6.3072    0.3768   17.3417 N   0  0  0  0  0  0  0  0  0  0  0  0
    9.7225   -5.4784   20.3392 N   0  0  0  0  0  0  0  0  0  0  0  0
    7.2305   -0.6898   20.7785 N   0  0  0  0  0  0  0  0  0  0  0  0
    8.0155   -2.1541   22.4325 N   0  0  0  0  0  0  0  0  0  0  0  0
   11.1049   -7.3007   20.3784 O   0  0  0  0  0  0  0  0  0  0  0  0
    8.8030    1.0413   21.0842 O   0  0  0  0  0  0  0  0  0  0  0  0
    6.1158   -2.7517   21.1386 O   0  0  0  0  0  0  0  0  0  0  0  0
    9.9496    0.5589   24.9527 O   0  0  0  0  0  0  0  0  0  0  0  0
   13.4278   -2.1472   21.1115 Cl  0  0  0  0  0  0  0  0  0  0  0  0
    2.5443    3.3508   20.6368 H   0  0  0  0  0  0  0  0  0  0  0  0
    3.5189    2.1137   22.5166 H   0  0  0  0  0  0  0  0  0  0  0  0
    3.3421    2.9744   18.3363 H   0  0  0  0  0  0  0  0  0  0  0  0
    5.3131    0.4893   22.1569 H   0  0  0  0  0  0  0  0  0  0  0  0
   12.5017    0.6065   24.9715 H   0  0  0  0  0  0  0  0  0  0  0  0
   13.9924   -0.5157   23.3773 H   0  0  0  0  0  0  0  0  0  0  0  0
   10.6031   -2.0252   21.2295 H   0  0  0  0  0  0  0  0  0  0  0  0
    4.9151    1.7511   16.7471 H   0  0  0  0  0  0  0  0  0  0  0  0
    7.6455   -0.9765   18.1038 H   0  0  0  0  0  0  0  0  0  0  0  0
   10.8362   -7.1859   22.9355 H   0  0  0  0  0  0  0  0  0  0  0  0
   11.6844   -5.6714   22.5888 H   0  0  0  0  0  0  0  0  0  0  0  0
    8.7169   -6.0507   23.2138 H   0  0  0  0  0  0  0  0  0  0  0  0
    9.9194   -5.2075   24.1921 H   0  0  0  0  0  0  0  0  0  0  0  0
    7.7144   -0.8754   24.6692 H   0  0  0  0  0  0  0  0  0  0  0  0
    6.8760    0.2356   23.5741 H   0  0  0  0  0  0  0  0  0  0  0  0
    7.8619   -4.9250   20.9972 H   0  0  0  0  0  0  0  0  0  0  0  0
    8.8478   -3.6086   20.3481 H   0  0  0  0  0  0  0  0  0  0  0  0
    8.8025    1.8559   23.8153 H   0  0  0  0  0  0  0  0  0  0  0  0
    8.1356    1.3957   25.3777 H   0  0  0  0  0  0  0  0  0  0  0  0
   10.2368   -3.5335   22.3438 H   0  0  0  0  0  0  0  0  0  0  0  0
    7.3396   -3.8921   23.1917 H   0  0  0  0  0  0  0  0  0  0  0  0
    8.6279   -3.0563   24.1237 H   0  0  0  0  0  0  0  0  0  0  0  0
    9.7309   -5.4859   19.3239 H   0  0  0  0  0  0  0  0  0  0  0  0
  1  2  2  0  0  0  0
  1  3  1  0  0  0  0
  2  4  1  0  0  0  0
  3 10  2  0  0  0  0
  4 11  2  0  0  0  0
  5  6  2  0  0  0  0
  5 14  1  0  0  0  0
  6 15  1  0  0  0  0
  7 12  1  0  0  0  0
  7 15  2  0  0  0  0
  8 10  1  0  0  0  0
  8 27  2  0  0  0  0
  9 13  2  0  0  0  0
  9 27  1  0  0  0  0
 10 11  1  0  0  0  0
 11 13  1  0  0  0  0
 12 14  2  0  0  0  0
 12 25  1  6  0  0  0
 13 29  1  0  0  0  0
 14 34  1  0  0  0  0
 15 35  1  0  0  0  0
 16 19  1  0  0  0  0
 16 28  1  0  0  0  0
 16 31  2  0  0  0  0
 17 25  1  1  0  0  0
 17 29  1  0  0  0  0
 17 32  2  0  0  0  0
 18 29  1  0  0  0  0
 18 30  1  0  0  0  0
 18 33  2  0  0  0  0
 19 20  1  0  0  0  0
 20 24  1  0  0  0  0
 21 23  1  0  0  0  0
 21 25  1  1  0  0  0
 22 24  1  0  0  0  0
 22 28  1  0  0  0  0
 23 34  1  0  0  0  0
 24 26  1  6  0  0  0
 25 30  1  6  0  0  0
 26 30  1  0  0  0  0
  1 36  1  0  0  0  0
  2 37  1  0  0  0  0
  3 38  1  0  0  0  0
  4 39  1  0  0  0  0
  5 40  1  0  0  0  0
  6 41  1  0  0  0  0
  7 42  1  0  0  0  0
  8 43  1  0  0  0  0
  9 44  1  0  0  0  0
 19 45  1  0  0  0  0
 19 46  1  0  0  0  0
 20 47  1  0  0  0  0
 20 48  1  0  0  0  0
 21 49  1  0  0  0  0
 21 50  1  0  0  0  0
 22 51  1  0  0  0  0
 22 52  1  0  0  0  0
 23 53  1  0  0  0  0
 23 54  1  0  0  0  0
 24 55  1  0  0  0  0
 26 56  1  0  0  0  0
 26 57  1  0  0  0  0
 28 58  1  0  0  0  0
M  END
> <scaffold>
chromane-5spiro-isoquinoline

> <compound>
VLA-UNK-f702bf1c-5

> <compound_smiles>
c1ccc2c(c1)cncc2N3C(=O)[C@@]4(CCOc5c4cc(cc5)Cl)N(C3=O)CC6CCC(=O)NC6

> <enantiomer_smiles>
c1ccc2c(c1)cncc2N3C(=O)[C@@]4(CCOc5c4cc(cc5)Cl)N(C3=O)C[C@H]6CCC(=O)NC6

> <clash_score>
10.065564114420678

> <docking_score>
3.4028234663852886e+38

> <overlap_score>
1.0

> <MMFF_internal_energy>
62.73630764105363

> <docked_smiles>
c1ccc2c(c1)cncc2N3C(=O)[C@@]4(CCOc5c4cc(cc5)Cl)N(C3=O)C[C@H]6CCC(=O)NC6

$$$$
VLA-UNK-f702bf1c-7_1
  -OEChem-01042202313D

 62 67  0     1  0  0  0  0  0999 V2000
    3.3444    2.6278   20.4409 C   0  0  0  0  0  0  0  0  0  0  0  0
    3.8974    1.9290   21.5048 C   0  0  0  0  0  0  0  0  0  0  0  0
    3.7877    2.4205   19.1658 C   0  0  0  0  0  0  0  0  0  0  0  0
    4.8986    1.0232   21.2985 C   0  0  0  0  0  0  0  0  0  0  0  0
   12.0781    0.0316   24.1532 C   0  0  0  0  0  0  0  0  0  0  0  0
   12.9147   -0.6032   23.2559 C   0  0  0  0  0  0  0  0  0  0  0  0
   11.0005   -1.4332   22.0435 C   0  0  0  0  0  0  0  0  0  0  0  0
    5.3288    1.2339   17.6062 C   0  0  0  0  0  0  0  0  0  0  0  0
    6.8449   -0.2893   18.3747 C   0  0  0  0  0  0  0  0  0  0  0  0
    4.8238    1.4906   18.9051 C   0  0  0  0  0  0  0  0  0  0  0  0
    5.3995    0.7732   19.9944 C   0  0  0  0  0  0  0  0  0  0  0  0
   10.1421   -0.7766   22.9242 C   0  0  0  0  0  0  0  0  0  0  0  0
    6.4452   -0.1472   19.6975 C   0  0  0  0  0  0  0  0  0  0  0  0
   10.7056   -0.0626   23.9890 C   0  0  0  0  0  0  0  0  0  0  0  0
   12.3697   -1.3298   22.2224 C   0  0  0  0  0  0  0  0  0  0  0  0
    8.2504    0.0168   21.4265 C   0  0  0  0  0  0  0  0  0  0  0  0
    6.9880   -1.9367   21.3575 C   0  0  0  0  0  0  0  0  0  0  0  0
    7.8737   -0.1194   23.8825 C   0  0  0  0  0  0  0  0  0  0  0  0
   10.2137   -5.6896   23.5166 C   0  0  0  0  0  0  0  0  0  0  0  0
    8.6724   -6.8691   22.0663 C   0  0  0  0  0  0  0  0  0  0  0  0
   10.4718   -6.9562   24.3240 C   0  0  0  0  0  0  0  0  0  0  0  0
    8.8908   -8.1658   22.8369 C   0  0  0  0  0  0  0  0  0  0  0  0
    8.6625    1.0133   24.4989 C   0  0  0  0  0  0  0  0  0  0  0  0
    8.6253   -0.7606   22.6923 C   0  0  2  0  0  0  0  0  0  0  0  0
    8.2670   -3.3056   23.1149 C   0  0  0  0  0  0  0  0  0  0  0  0
    8.6153   -4.4624   22.1935 C   0  0  0  0  0  0  0  0  0  0  0  0
    6.3072    0.3768   17.3417 N   0  0  0  0  0  0  0  0  0  0  0  0
    7.2305   -0.6898   20.7785 N   0  0  0  0  0  0  0  0  0  0  0  0
    8.0155   -2.1541   22.4325 N   0  0  0  0  0  0  0  0  0  0  0  0
    8.8631   -5.6982   22.9352 N   0  0  0  0  0  0  0  0  0  0  0  0
   10.2517   -8.1441   23.4482 N   0  3  0  0  0  0  0  0  0  0  0  0
    8.8030    1.0413   21.0842 O   0  0  0  0  0  0  0  0  0  0  0  0
    6.1158   -2.7517   21.1386 O   0  0  0  0  0  0  0  0  0  0  0  0
    9.9496    0.5589   24.9527 O   0  0  0  0  0  0  0  0  0  0  0  0
   13.4278   -2.1472   21.1115 Cl  0  0  0  0  0  0  0  0  0  0  0  0
    2.5443    3.3508   20.6368 H   0  0  0  0  0  0  0  0  0  0  0  0
    3.5189    2.1137   22.5166 H   0  0  0  0  0  0  0  0  0  0  0  0
    3.3421    2.9744   18.3363 H   0  0  0  0  0  0  0  0  0  0  0  0
    5.3131    0.4893   22.1569 H   0  0  0  0  0  0  0  0  0  0  0  0
   12.5017    0.6065   24.9715 H   0  0  0  0  0  0  0  0  0  0  0  0
   13.9924   -0.5157   23.3773 H   0  0  0  0  0  0  0  0  0  0  0  0
   10.6031   -2.0252   21.2295 H   0  0  0  0  0  0  0  0  0  0  0  0
    4.9151    1.7511   16.7471 H   0  0  0  0  0  0  0  0  0  0  0  0
    7.6455   -0.9765   18.1038 H   0  0  0  0  0  0  0  0  0  0  0  0
    7.7144   -0.8754   24.6692 H   0  0  0  0  0  0  0  0  0  0  0  0
    6.8760    0.2356   23.5741 H   0  0  0  0  0  0  0  0  0  0  0  0
   10.3159   -4.8329   24.1896 H   0  0  0  0  0  0  0  0  0  0  0  0
   10.9736   -5.5879   22.7344 H   0  0  0  0  0  0  0  0  0  0  0  0
    9.3502   -6.8307   21.2066 H   0  0  0  0  0  0  0  0  0  0  0  0
    7.6489   -6.8739   21.6798 H   0  0  0  0  0  0  0  0  0  0  0  0
   11.5068   -7.0054   24.6751 H   0  0  0  0  0  0  0  0  0  0  0  0
    9.7938   -7.0497   25.1793 H   0  0  0  0  0  0  0  0  0  0  0  0
    8.1683   -8.2931   23.6503 H   0  0  0  0  0  0  0  0  0  0  0  0
    8.8508   -9.0373   22.1769 H   0  0  0  0  0  0  0  0  0  0  0  0
    8.8025    1.8559   23.8153 H   0  0  0  0  0  0  0  0  0  0  0  0
    8.1356    1.3957   25.3777 H   0  0  0  0  0  0  0  0  0  0  0  0
    9.0788   -3.0976   23.8192 H   0  0  0  0  0  0  0  0  0  0  0  0
    7.3622   -3.5382   23.6849 H   0  0  0  0  0  0  0  0  0  0  0  0
    7.7878   -4.6611   21.5055 H   0  0  0  0  0  0  0  0  0  0  0  0
    9.5124   -4.2468   21.6042 H   0  0  0  0  0  0  0  0  0  0  0  0
   10.9637   -8.1601   22.7045 H   0  0  0  0  0  0  0  0  0  0  0  0
   10.3972   -9.0047   23.9936 H   0  0  0  0  0  0  0  0  0  0  0  0
  1  2  2  0  0  0  0
  1  3  1  0  0  0  0
  2  4  1  0  0  0  0
  3 10  2  0  0  0  0
  4 11  2  0  0  0  0
  5  6  2  0  0  0  0
  5 14  1  0  0  0  0
  6 15  1  0  0  0  0
  7 12  1  0  0  0  0
  7 15  2  0  0  0  0
  8 10  1  0  0  0  0
  8 27  2  0  0  0  0
  9 13  2  0  0  0  0
  9 27  1  0  0  0  0
 10 11  1  0  0  0  0
 11 13  1  0  0  0  0
 12 14  2  0  0  0  0
 12 24  1  6  0  0  0
 13 28  1  0  0  0  0
 14 34  1  0  0  0  0
 15 35  1  0  0  0  0
 16 24  1  1  0  0  0
 16 28  1  0  0  0  0
 16 32  2  0  0  0  0
 17 28  1  0  0  0  0
 17 29  1  0  0  0  0
 17 33  2  0  0  0  0
 18 23  1  0  0  0  0
 18 24  1  1  0  0  0
 19 21  1  0  0  0  0
 19 30  1  0  0  0  0
 20 22  1  0  0  0  0
 20 30  1  0  0  0  0
 21 31  1  0  0  0  0
 22 31  1  0  0  0  0
 23 34  1  0  0  0  0
 24 29  1  6  0  0  0
 25 26  1  0  0  0  0
 25 29  1  0  0  0  0
 26 30  1  0  0  0  0
  1 36  1  0  0  0  0
  2 37  1  0  0  0  0
  3 38  1  0  0  0  0
  4 39  1  0  0  0  0
  5 40  1  0  0  0  0
  6 41  1  0  0  0  0
  7 42  1  0  0  0  0
  8 43  1  0  0  0  0
  9 44  1  0  0  0  0
 18 45  1  0  0  0  0
 18 46  1  0  0  0  0
 19 47  1  0  0  0  0
 19 48  1  0  0  0  0
 20 49  1  0  0  0  0
 20 50  1  0  0  0  0
 21 51  1  0  0  0  0
 21 52  1  0  0  0  0
 22 53  1  0  0  0  0
 22 54  1  0  0  0  0
 23 55  1  0  0  0  0
 23 56  1  0  0  0  0
 25 57  1  0  0  0  0
 25 58  1  0  0  0  0
 26 59  1  0  0  0  0
 26 60  1  0  0  0  0
 31 61  1  0  0  0  0
 31 62  1  0  0  0  0
M  CHG  1  31   1
M  END
> <scaffold>
chromane-5spiro-isoquinoline

> <compound>
VLA-UNK-f702bf1c-7

> <compound_smiles>
c1ccc2c(c1)cncc2N3C(=O)[C@@]4(CCOc5c4cc(cc5)Cl)N(C3=O)CCN6CCNCC6

> <enantiomer_smiles>
c1ccc2c(c1)cncc2N3C(=O)[C@@]4(CCOc5c4cc(cc5)Cl)N(C3=O)CCN6CCNCC6

> <clash_score>
3.684166895431872

> <docking_score>
3.4028234663852886e+38

> <overlap_score>
1.0

> <MMFF_internal_energy>
171.89271231166052

> <docked_smiles>
c1ccc2c(c1)cncc2N3C(=O)[C@@]4(CCOc5c4cc(cc5)Cl)N(C3=O)CCN6CC[NH2+]CC6

$$$$
EDJ-MED-8bb691af-5_1
  -OEChem-01042202313D

 58 63  0     1  0  0  0  0  0999 V2000
    6.6187    2.6198   28.4464 C   0  0  0  0  0  0  0  0  0  0  0  0
    3.3444    2.6278   20.4409 C   0  0  0  0  0  0  0  0  0  0  0  0
    3.8974    1.9290   21.5048 C   0  0  0  0  0  0  0  0  0  0  0  0
    3.7877    2.4205   19.1658 C   0  0  0  0  0  0  0  0  0  0  0  0
    4.8986    1.0232   21.2985 C   0  0  0  0  0  0  0  0  0  0  0  0
   12.0781    0.0316   24.1532 C   0  0  0  0  0  0  0  0  0  0  0  0
   12.9147   -0.6032   23.2559 C   0  0  0  0  0  0  0  0  0  0  0  0
   11.0005   -1.4332   22.0435 C   0  0  0  0  0  0  0  0  0  0  0  0
    5.3288    1.2339   17.6062 C   0  0  0  0  0  0  0  0  0  0  0  0
    6.8449   -0.2893   18.3747 C   0  0  0  0  0  0  0  0  0  0  0  0
    4.8238    1.4906   18.9051 C   0  0  0  0  0  0  0  0  0  0  0  0
    5.3995    0.7732   19.9944 C   0  0  0  0  0  0  0  0  0  0  0  0
   10.7056   -0.0626   23.9890 C   0  0  0  0  0  0  0  0  0  0  0  0
   10.1421   -0.7766   22.9242 C   0  0  0  0  0  0  0  0  0  0  0  0
    6.4452   -0.1472   19.6975 C   0  0  0  0  0  0  0  0  0  0  0  0
   12.3697   -1.3298   22.2224 C   0  0  0  0  0  0  0  0  0  0  0  0
    6.9880   -1.9367   21.3575 C   0  0  0  0  0  0  0  0  0  0  0  0
    9.9496    0.5589   24.9527 C   0  0  0  0  0  0  0  0  0  0  0  0
    8.0155   -2.1541   22.4325 C   0  0  0  0  0  0  0  0  0  0  0  0
    5.8436    0.2327   28.6846 C   0  0  0  0  0  0  0  0  0  0  0  0
    5.1079    0.8269   27.5200 C   0  0  0  0  0  0  0  0  0  0  0  0
    8.2504    0.0168   21.4265 C   0  0  0  0  0  0  0  0  0  0  0  0
    7.8737   -0.1194   23.8825 C   0  0  0  0  0  0  0  0  0  0  0  0
    6.5006    1.3124   27.8543 C   0  0  0  0  0  0  0  0  0  0  0  0
    8.6253   -0.7606   22.6923 C   0  0  3  0  0  0  0  0  0  0  0  0
    7.6335    0.9134   26.9352 C   0  0  0  0  0  0  0  0  0  0  0  0
    6.7138    3.6732   28.9234 N   0  0  0  0  0  0  0  0  0  0  0  0
    6.3072    0.3768   17.3417 N   0  0  0  0  0  0  0  0  0  0  0  0
    7.2305   -0.6898   20.7785 N   0  0  0  0  0  0  0  0  0  0  0  0
    8.6625    1.0133   24.4989 N   0  0  3  0  0  0  0  0  0  0  0  0
    6.1531   -2.7897   21.0699 O   0  0  0  0  0  0  0  0  0  0  0  0
    6.4542    2.2170   25.0021 O   0  0  0  0  0  0  0  0  0  0  0  0
    8.5986    3.1408   25.9683 O   0  0  0  0  0  0  0  0  0  0  0  0
    7.7759    2.0234   25.5582 S   0  0  0  0  0  0  0  0  0  0  0  0
   13.4298   -2.1393   21.1082 Cl  0  0  0  0  0  0  0  0  0  0  0  0
    2.5443    3.3508   20.6368 H   0  0  0  0  0  0  0  0  0  0  0  0
    3.5189    2.1137   22.5166 H   0  0  0  0  0  0  0  0  0  0  0  0
    3.3421    2.9744   18.3363 H   0  0  0  0  0  0  0  0  0  0  0  0
    5.3131    0.4893   22.1569 H   0  0  0  0  0  0  0  0  0  0  0  0
   12.5051    0.5958   24.9739 H   0  0  0  0  0  0  0  0  0  0  0  0
   13.9931   -0.5176   23.3785 H   0  0  0  0  0  0  0  0  0  0  0  0
   10.6215   -2.0186   21.2225 H   0  0  0  0  0  0  0  0  0  0  0  0
    4.9151    1.7511   16.7471 H   0  0  0  0  0  0  0  0  0  0  0  0
    7.6455   -0.9765   18.1038 H   0  0  0  0  0  0  0  0  0  0  0  0
    9.7835   -0.1198   25.8271 H   0  0  0  0  0  0  0  0  0  0  0  0
   10.4794    1.4564   25.3596 H   0  0  0  0  0  0  0  0  0  0  0  0
    7.5472   -2.5926   23.3206 H   0  0  0  0  0  0  0  0  0  0  0  0
    8.7571   -2.8588   22.0364 H   0  0  0  0  0  0  0  0  0  0  0  0
    5.4896    0.4773   29.6797 H   0  0  0  0  0  0  0  0  0  0  0  0
    6.2010   -0.7859   28.5868 H   0  0  0  0  0  0  0  0  0  0  0  0
    4.9717    0.2056   26.6422 H   0  0  0  0  0  0  0  0  0  0  0  0
    4.2610    1.4682   27.7362 H   0  0  0  0  0  0  0  0  0  0  0  0
    7.9423    1.0634   21.6419 H   0  0  0  0  0  0  0  0  0  0  0  0
    9.1094    0.0821   20.7246 H   0  0  0  0  0  0  0  0  0  0  0  0
    6.8964    0.2743   23.5502 H   0  0  0  0  0  0  0  0  0  0  0  0
    7.6589   -0.8670   24.6688 H   0  0  0  0  0  0  0  0  0  0  0  0
    7.4718   -0.0879   26.5267 H   0  0  0  0  0  0  0  0  0  0  0  0
    8.5906    0.9305   27.4635 H   0  0  0  0  0  0  0  0  0  0  0  0
  1 24  1  0  0  0  0
  1 27  3  0  0  0  0
  2  3  2  0  0  0  0
  2  4  1  0  0  0  0
  3  5  1  0  0  0  0
  4 11  2  0  0  0  0
  5 12  2  0  0  0  0
  6  7  2  0  0  0  0
  6 13  1  0  0  0  0
  7 16  1  0  0  0  0
  8 14  1  0  0  0  0
  8 16  2  0  0  0  0
  9 11  1  0  0  0  0
  9 28  2  0  0  0  0
 10 15  2  0  0  0  0
 10 28  1  0  0  0  0
 11 12  1  0  0  0  0
 12 15  1  0  0  0  0
 13 14  2  0  0  0  0
 13 18  1  0  0  0  0
 14 25  1  0  0  0  0
 15 29  1  0  0  0  0
 16 35  1  0  0  0  0
 17 19  1  0  0  0  0
 17 29  1  0  0  0  0
 17 31  2  0  0  0  0
 18 30  1  0  0  0  0
 19 25  1  0  0  0  0
 20 21  1  0  0  0  0
 20 24  1  0  0  0  0
 21 24  1  0  0  0  0
 22 25  1  0  0  0  0
 22 29  1  0  0  0  0
 23 25  1  0  0  0  0
 23 30  1  0  0  0  0
 24 26  1  0  0  0  0
 26 34  1  0  0  0  0
 30 34  1  0  0  0  0
 32 34  2  0  0  0  0
 33 34  2  0  0  0  0
  2 36  1  0  0  0  0
  3 37  1  0  0  0  0
  4 38  1  0  0  0  0
  5 39  1  0  0  0  0
  6 40  1  0  0  0  0
  7 41  1  0  0  0  0
  8 42  1  0  0  0  0
  9 43  1  0  0  0  0
 10 44  1  0  0  0  0
 18 45  1  0  0  0  0
 18 46  1  0  0  0  0
 19 47  1  0  0  0  0
 19 48  1  0  0  0  0
 20 49  1  0  0  0  0
 20 50  1  0  0  0  0
 21 51  1  0  0  0  0
 21 52  1  0  0  0  0
 22 53  1  0  0  0  0
 22 54  1  0  0  0  0
 23 55  1  0  0  0  0
 23 56  1  0  0  0  0
 26 57  1  0  0  0  0
 26 58  1  0  0  0  0
M  END
> <scaffold>
tetrahydroisoquinoline-5spiro-isoquinoline

> <compound>
EDJ-MED-8bb691af-5

> <compound_smiles>
c1ccc2c(c1)cncc2N3CC4(CC3=O)CN(Cc5c4cc(cc5)Cl)S(=O)(=O)CC6(CC6)C#N

> <enantiomer_smiles>
c1ccc2c(c1)cncc2N3C[C@@]4(CC3=O)C[N@@](Cc5c4cc(cc5)Cl)S(=O)(=O)CC6(CC6)C#N

> <clash_score>
0

> <docking_score>
3.4028234663852886e+38

> <overlap_score>
0.9691039323806763

> <MMFF_internal_energy>
93.92731323861581

> <docked_smiles>
c1ccc2c(c1)cncc2N3C[C@@]4(CC3=O)C[N@](Cc5c4cc(cc5)Cl)S(=O)(=O)CC6(CC6)C#N

$$$$
MAT-POS-50a80394-7_1
  -OEChem-01042202313D

 61 65  0     1  0  0  0  0  0999 V2000
    3.3444    2.6278   20.4409 C   0  0  0  0  0  0  0  0  0  0  0  0
    3.8974    1.9290   21.5048 C   0  0  0  0  0  0  0  0  0  0  0  0
    3.7877    2.4205   19.1658 C   0  0  0  0  0  0  0  0  0  0  0  0
    4.8986    1.0232   21.2985 C   0  0  0  0  0  0  0  0  0  0  0  0
   12.0781    0.0316   24.1532 C   0  0  0  0  0  0  0  0  0  0  0  0
   12.9147   -0.6032   23.2559 C   0  0  0  0  0  0  0  0  0  0  0  0
   11.0005   -1.4332   22.0435 C   0  0  0  0  0  0  0  0  0  0  0  0
    5.3288    1.2339   17.6062 C   0  0  0  0  0  0  0  0  0  0  0  0
    6.8449   -0.2893   18.3747 C   0  0  0  0  0  0  0  0  0  0  0  0
    4.8238    1.4906   18.9051 C   0  0  0  0  0  0  0  0  0  0  0  0
    5.3995    0.7732   19.9944 C   0  0  0  0  0  0  0  0  0  0  0  0
   10.7056   -0.0626   23.9890 C   0  0  0  0  0  0  0  0  0  0  0  0
   10.1421   -0.7766   22.9242 C   0  0  0  0  0  0  0  0  0  0  0  0
    6.4452   -0.1472   19.6975 C   0  0  0  0  0  0  0  0  0  0  0  0
   12.3697   -1.3298   22.2224 C   0  0  0  0  0  0  0  0  0  0  0  0
    8.2504    0.0168   21.4265 C   0  0  0  0  0  0  0  0  0  0  0  0
    6.7949    2.5810   24.9685 C   0  0  0  0  0  0  0  0  0  0  0  0
    9.9496    0.5589   24.9527 C   0  0  0  0  0  0  0  0  0  0  0  0
    6.9880   -1.9367   21.3575 C   0  0  0  0  0  0  0  0  0  0  0  0
    7.8737   -0.1194   23.8825 C   0  0  0  0  0  0  0  0  0  0  0  0
    8.6253   -0.7606   22.6923 C   0  0  3  0  0  0  0  0  0  0  0  0
    8.0155   -2.1541   22.4325 C   0  0  0  0  0  0  0  0  0  0  0  0
    9.0439   -3.2451   22.0289 C   0  0  0  0  0  0  0  0  0  0  0  0
    7.2503   -2.7532   23.6659 C   0  0  0  0  0  0  0  0  0  0  0  0
    4.5148    3.4409   25.4149 C   0  0  0  0  0  0  0  0  0  0  0  0
    7.8623    1.7101   25.5820 C   0  0  0  0  0  0  0  0  0  0  0  0
    6.3072    0.3768   17.3417 N   0  0  0  0  0  0  0  0  0  0  0  0
    7.2305   -0.6898   20.7785 N   0  0  0  0  0  0  0  0  0  0  0  0
    5.6746    2.6638   25.7818 N   0  0  0  0  0  0  0  0  0  0  0  0
    8.6625    1.0133   24.4989 N   0  3  3  0  0  0  0  0  0  0  0  0
    8.8311    1.0331   21.0730 O   0  0  0  0  0  0  0  0  0  0  0  0
    6.9226    3.1398   23.8824 O   0  0  0  0  0  0  0  0  0  0  0  0
   13.4314   -2.1378   21.1086 Cl  0  0  0  0  0  0  0  0  0  0  0  0
    2.5443    3.3508   20.6368 H   0  0  0  0  0  0  0  0  0  0  0  0
    3.5189    2.1137   22.5166 H   0  0  0  0  0  0  0  0  0  0  0  0
    3.3421    2.9744   18.3363 H   0  0  0  0  0  0  0  0  0  0  0  0
    5.3131    0.4893   22.1569 H   0  0  0  0  0  0  0  0  0  0  0  0
   12.5078    0.6098   24.9623 H   0  0  0  0  0  0  0  0  0  0  0  0
   13.9942   -0.5042   23.3689 H   0  0  0  0  0  0  0  0  0  0  0  0
   10.6328   -2.0154   21.2257 H   0  0  0  0  0  0  0  0  0  0  0  0
    4.9151    1.7511   16.7471 H   0  0  0  0  0  0  0  0  0  0  0  0
    7.6455   -0.9765   18.1038 H   0  0  0  0  0  0  0  0  0  0  0  0
    9.7700   -0.1097   25.8421 H   0  0  0  0  0  0  0  0  0  0  0  0
   10.4590    1.4736   25.3669 H   0  0  0  0  0  0  0  0  0  0  0  0
    7.0063   -2.7223   20.5658 H   0  0  0  0  0  0  0  0  0  0  0  0
    5.9420   -1.9716   21.7525 H   0  0  0  0  0  0  0  0  0  0  0  0
    6.9192    0.3207   23.5716 H   0  0  0  0  0  0  0  0  0  0  0  0
    7.6953   -0.8382   24.6920 H   0  0  0  0  0  0  0  0  0  0  0  0
    9.7612   -3.3834   22.8321 H   0  0  0  0  0  0  0  0  0  0  0  0
    9.5610   -2.9197   21.1314 H   0  0  0  0  0  0  0  0  0  0  0  0
    8.5307   -4.1818   21.8340 H   0  0  0  0  0  0  0  0  0  0  0  0
    7.9605   -2.9345   24.4586 H   0  0  0  0  0  0  0  0  0  0  0  0
    6.7733   -3.6746   23.3677 H   0  0  0  0  0  0  0  0  0  0  0  0
    6.5128   -2.0288   23.9772 H   0  0  0  0  0  0  0  0  0  0  0  0
    4.6123    4.4593   25.8190 H   0  0  0  0  0  0  0  0  0  0  0  0
    4.4366    3.4875   24.3186 H   0  0  0  0  0  0  0  0  0  0  0  0
    3.6112    2.9680   25.8271 H   0  0  0  0  0  0  0  0  0  0  0  0
    7.4109    0.9338   26.2060 H   0  0  0  0  0  0  0  0  0  0  0  0
    8.5564    2.3164   26.1706 H   0  0  0  0  0  0  0  0  0  0  0  0
    5.6494    2.1462   26.6557 H   0  0  0  0  0  0  0  0  0  0  0  0
    8.7877    1.7286   23.7534 H   0  0  0  0  0  0  0  0  0  0  0  0
  1  2  2  0  0  0  0
  1  3  1  0  0  0  0
  2  4  1  0  0  0  0
  3 10  2  0  0  0  0
  4 11  2  0  0  0  0
  5  6  2  0  0  0  0
  5 12  1  0  0  0  0
  6 15  1  0  0  0  0
  7 13  1  0  0  0  0
  7 15  2  0  0  0  0
  8 10  1  0  0  0  0
  8 27  2  0  0  0  0
  9 14  2  0  0  0  0
  9 27  1  0  0  0  0
 10 11  1  0  0  0  0
 11 14  1  0  0  0  0
 12 13  2  0  0  0  0
 12 18  1  0  0  0  0
 13 21  1  0  0  0  0
 14 28  1  0  0  0  0
 15 33  1  0  0  0  0
 16 21  1  0  0  0  0
 16 28  1  0  0  0  0
 16 31  2  0  0  0  0
 17 26  1  0  0  0  0
 17 29  1  0  0  0  0
 17 32  2  0  0  0  0
 18 30  1  0  0  0  0
 19 22  1  0  0  0  0
 19 28  1  0  0  0  0
 20 21  1  0  0  0  0
 20 30  1  0  0  0  0
 21 22  1  0  0  0  0
 22 23  1  0  0  0  0
 22 24  1  0  0  0  0
 25 29  1  0  0  0  0
 26 30  1  0  0  0  0
  1 34  1  0  0  0  0
  2 35  1  0  0  0  0
  3 36  1  0  0  0  0
  4 37  1  0  0  0  0
  5 38  1  0  0  0  0
  6 39  1  0  0  0  0
  7 40  1  0  0  0  0
  8 41  1  0  0  0  0
  9 42  1  0  0  0  0
 18 43  1  0  0  0  0
 18 44  1  0  0  0  0
 19 45  1  0  0  0  0
 19 46  1  0  0  0  0
 20 47  1  0  0  0  0
 20 48  1  0  0  0  0
 23 49  1  0  0  0  0
 23 50  1  0  0  0  0
 23 51  1  0  0  0  0
 24 52  1  0  0  0  0
 24 53  1  0  0  0  0
 24 54  1  0  0  0  0
 25 55  1  0  0  0  0
 25 56  1  0  0  0  0
 25 57  1  0  0  0  0
 26 58  1  0  0  0  0
 26 59  1  0  0  0  0
 29 60  1  0  0  0  0
 30 61  1  0  0  0  0
M  CHG  1  30   1
M  END
> <scaffold>
tetrahydroisoquinoline-5spiro-isoquinoline

> <compound>
MAT-POS-50a80394-7

> <compound_smiles>
CC1(CN(C(=O)C12CN(Cc3c2cc(cc3)Cl)CC(=O)NC)c4cncc5c4cccc5)C

> <enantiomer_smiles>
CC1(CN(C(=O)[C@@]12C[N@@](Cc3c2cc(cc3)Cl)CC(=O)NC)c4cncc5c4cccc5)C

> <clash_score>
0

> <docking_score>
3.4028234663852886e+38

> <overlap_score>
1.0

> <MMFF_internal_energy>
211.61505472985564

> <docked_smiles>
CC1(CN(C(=O)[C@@]12C[N@H+](Cc3c2cc(cc3)Cl)CC(=O)NC)c4cncc5c4cccc5)C

$$$$
PET-UNK-94036022-3_1
  -OEChem-01042202313D

 57 62  0     1  0  0  0  0  0999 V2000
    3.3444    2.6278   20.4409 C   0  0  0  0  0  0  0  0  0  0  0  0
    3.8974    1.9290   21.5048 C   0  0  0  0  0  0  0  0  0  0  0  0
    3.7877    2.4205   19.1658 C   0  0  0  0  0  0  0  0  0  0  0  0
    4.8986    1.0232   21.2985 C   0  0  0  0  0  0  0  0  0  0  0  0
   12.0781    0.0316   24.1532 C   0  0  0  0  0  0  0  0  0  0  0  0
   12.9147   -0.6032   23.2559 C   0  0  0  0  0  0  0  0  0  0  0  0
   11.0005   -1.4332   22.0435 C   0  0  0  0  0  0  0  0  0  0  0  0
    5.3288    1.2339   17.6062 C   0  0  0  0  0  0  0  0  0  0  0  0
    6.8449   -0.2893   18.3747 C   0  0  0  0  0  0  0  0  0  0  0  0
    4.8238    1.4906   18.9051 C   0  0  0  0  0  0  0  0  0  0  0  0
    5.3995    0.7732   19.9944 C   0  0  0  0  0  0  0  0  0  0  0  0
   10.7056   -0.0626   23.9890 C   0  0  0  0  0  0  0  0  0  0  0  0
   10.1421   -0.7766   22.9242 C   0  0  0  0  0  0  0  0  0  0  0  0
    6.4452   -0.1472   19.6975 C   0  0  0  0  0  0  0  0  0  0  0  0
   12.3697   -1.3298   22.2224 C   0  0  0  0  0  0  0  0  0  0  0  0
    8.2504    0.0168   21.4265 C   0  0  0  0  0  0  0  0  0  0  0  0
    9.9496    0.5589   24.9527 C   0  0  0  0  0  0  0  0  0  0  0  0
    9.6009    5.7706   24.2260 C   0  0  0  0  0  0  0  0  0  0  0  0
    8.8097    6.1213   25.4530 C   0  0  0  0  0  0  0  0  0  0  0  0
    8.0155   -2.1541   22.4325 C   0  0  0  0  0  0  0  0  0  0  0  0
    6.9880   -1.9367   21.3575 C   0  0  0  0  0  0  0  0  0  0  0  0
    7.8737   -0.1194   23.8825 C   0  0  0  0  0  0  0  0  0  0  0  0
    8.6253   -0.7606   22.6923 C   0  0  1  0  0  0  0  0  0  0  0  0
    8.3206    5.0310   24.5305 C   0  0  0  0  0  0  0  0  0  0  0  0
    8.3989    3.5924   24.9901 C   0  0  0  0  0  0  0  0  0  0  0  0
    6.3072    0.3768   17.3417 N   0  0  0  0  0  0  0  0  0  0  0  0
    7.2305   -0.6898   20.7785 N   0  0  0  0  0  0  0  0  0  0  0  0
    8.6625    1.0133   24.4989 N   0  0  3  0  0  0  0  0  0  0  0  0
    8.7590    1.0938   21.1339 O   0  0  0  0  0  0  0  0  0  0  0  0
    7.4185    2.5202   22.8183 O   0  0  0  0  0  0  0  0  0  0  0  0
    9.9256    2.7344   23.0508 O   0  0  0  0  0  0  0  0  0  0  0  0
    8.6205    2.4836   23.6226 S   0  0  0  0  0  0  0  0  0  0  0  0
   13.4282   -2.1430   21.1088 Cl  0  0  0  0  0  0  0  0  0  0  0  0
    6.9145    5.4085   23.5159 Cl  0  0  0  0  0  0  0  0  0  0  0  0
    2.5443    3.3508   20.6368 H   0  0  0  0  0  0  0  0  0  0  0  0
    3.5189    2.1137   22.5166 H   0  0  0  0  0  0  0  0  0  0  0  0
    3.3421    2.9744   18.3363 H   0  0  0  0  0  0  0  0  0  0  0  0
    5.3131    0.4893   22.1569 H   0  0  0  0  0  0  0  0  0  0  0  0
   12.5037    0.5936   24.9766 H   0  0  0  0  0  0  0  0  0  0  0  0
   13.9925   -0.5222   23.3811 H   0  0  0  0  0  0  0  0  0  0  0  0
   10.6052   -2.0226   21.2278 H   0  0  0  0  0  0  0  0  0  0  0  0
    4.9151    1.7511   16.7471 H   0  0  0  0  0  0  0  0  0  0  0  0
    7.6455   -0.9765   18.1038 H   0  0  0  0  0  0  0  0  0  0  0  0
    9.7611   -0.1282   25.8170 H   0  0  0  0  0  0  0  0  0  0  0  0
   10.4950    1.4394   25.3807 H   0  0  0  0  0  0  0  0  0  0  0  0
    9.6114    6.4879   23.4138 H   0  0  0  0  0  0  0  0  0  0  0  0
   10.5434    5.2545   24.3666 H   0  0  0  0  0  0  0  0  0  0  0  0
    9.2223    5.8393   26.4145 H   0  0  0  0  0  0  0  0  0  0  0  0
    8.2914    7.0729   25.4609 H   0  0  0  0  0  0  0  0  0  0  0  0
    7.5816   -2.6066   23.3357 H   0  0  0  0  0  0  0  0  0  0  0  0
    8.7766   -2.8606   22.0650 H   0  0  0  0  0  0  0  0  0  0  0  0
    7.0239   -2.7507   20.5948 H   0  0  0  0  0  0  0  0  0  0  0  0
    5.9570   -1.9477   21.7832 H   0  0  0  0  0  0  0  0  0  0  0  0
    6.8900    0.2772   23.5669 H   0  0  0  0  0  0  0  0  0  0  0  0
    7.6602   -0.8709   24.6633 H   0  0  0  0  0  0  0  0  0  0  0  0
    7.4793    3.2941   25.5011 H   0  0  0  0  0  0  0  0  0  0  0  0
    9.2447    3.4431   25.6667 H   0  0  0  0  0  0  0  0  0  0  0  0
  1  2  2  0  0  0  0
  1  3  1  0  0  0  0
  2  4  1  0  0  0  0
  3 10  2  0  0  0  0
  4 11  2  0  0  0  0
  5  6  2  0  0  0  0
  5 12  1  0  0  0  0
  6 15  1  0  0  0  0
  7 13  1  0  0  0  0
  7 15  2  0  0  0  0
  8 10  1  0  0  0  0
  8 26  2  0  0  0  0
  9 14  2  0  0  0  0
  9 26  1  0  0  0  0
 10 11  1  0  0  0  0
 11 14  1  0  0  0  0
 12 13  2  0  0  0  0
 12 17  1  0  0  0  0
 13 23  1  6  0  0  0
 14 27  1  0  0  0  0
 15 33  1  0  0  0  0
 16 23  1  1  0  0  0
 16 27  1  0  0  0  0
 16 29  2  0  0  0  0
 17 28  1  0  0  0  0
 18 19  1  0  0  0  0
 18 24  1  0  0  0  0
 19 24  1  0  0  0  0
 20 21  1  0  0  0  0
 20 23  1  1  0  0  0
 21 27  1  0  0  0  0
 22 23  1  6  0  0  0
 22 28  1  0  0  0  0
 24 25  1  0  0  0  0
 24 34  1  0  0  0  0
 25 32  1  0  0  0  0
 28 32  1  0  0  0  0
 30 32  2  0  0  0  0
 31 32  2  0  0  0  0
  1 35  1  0  0  0  0
  2 36  1  0  0  0  0
  3 37  1  0  0  0  0
  4 38  1  0  0  0  0
  5 39  1  0  0  0  0
  6 40  1  0  0  0  0
  7 41  1  0  0  0  0
  8 42  1  0  0  0  0
  9 43  1  0  0  0  0
 17 44  1  0  0  0  0
 17 45  1  0  0  0  0
 18 46  1  0  0  0  0
 18 47  1  0  0  0  0
 19 48  1  0  0  0  0
 19 49  1  0  0  0  0
 20 50  1  0  0  0  0
 20 51  1  0  0  0  0
 21 52  1  0  0  0  0
 21 53  1  0  0  0  0
 22 54  1  0  0  0  0
 22 55  1  0  0  0  0
 25 56  1  0  0  0  0
 25 57  1  0  0  0  0
M  END
> <scaffold>
tetrahydroisoquinoline-5spiro-isoquinoline

> <compound>
PET-UNK-94036022-3

> <compound_smiles>
c1ccc2c(c1)cncc2N3CC[C@@]4(C3=O)CN(Cc5c4cc(cc5)Cl)S(=O)(=O)CC6(CC6)Cl

> <enantiomer_smiles>
c1ccc2c(c1)cncc2N3CC[C@@]4(C3=O)C[N@@](Cc5c4cc(cc5)Cl)S(=O)(=O)CC6(CC6)Cl

> <clash_score>
0

> <docking_score>
3.4028234663852886e+38

> <overlap_score>
0.9757573008537292

> <MMFF_internal_energy>
121.48536360937953

> <docked_smiles>
c1ccc2c(c1)cncc2N3CC[C@@]4(C3=O)C[N@@](Cc5c4cc(cc5)Cl)S(=O)(=O)CC6(CC6)Cl

$$$$
MAT-POS-50a80394-6_2
  -OEChem-01042202313D

 64 68  0     1  0  0  0  0  0999 V2000
    3.3444    2.6278   20.4409 C   0  0  0  0  0  0  0  0  0  0  0  0
    3.8974    1.9290   21.5048 C   0  0  0  0  0  0  0  0  0  0  0  0
    3.7877    2.4205   19.1658 C   0  0  0  0  0  0  0  0  0  0  0  0
    4.8986    1.0232   21.2985 C   0  0  0  0  0  0  0  0  0  0  0  0
   12.0781    0.0316   24.1532 C   0  0  0  0  0  0  0  0  0  0  0  0
   12.9147   -0.6032   23.2559 C   0  0  0  0  0  0  0  0  0  0  0  0
   11.0005   -1.4332   22.0435 C   0  0  0  0  0  0  0  0  0  0  0  0
    5.3288    1.2339   17.6062 C   0  0  0  0  0  0  0  0  0  0  0  0
    6.8449   -0.2893   18.3747 C   0  0  0  0  0  0  0  0  0  0  0  0
    4.8238    1.4906   18.9051 C   0  0  0  0  0  0  0  0  0  0  0  0
    5.3995    0.7732   19.9944 C   0  0  0  0  0  0  0  0  0  0  0  0
   10.7056   -0.0626   23.9890 C   0  0  0  0  0  0  0  0  0  0  0  0
   10.1421   -0.7766   22.9242 C   0  0  0  0  0  0  0  0  0  0  0  0
    6.4452   -0.1472   19.6975 C   0  0  0  0  0  0  0  0  0  0  0  0
   12.3697   -1.3298   22.2224 C   0  0  0  0  0  0  0  0  0  0  0  0
    8.2504    0.0168   21.4265 C   0  0  0  0  0  0  0  0  0  0  0  0
    8.9714    3.4739   24.3229 C   0  0  0  0  0  0  0  0  0  0  0  0
    9.9496    0.5589   24.9527 C   0  0  0  0  0  0  0  0  0  0  0  0
    6.9880   -1.9367   21.3575 C   0  0  0  0  0  0  0  0  0  0  0  0
    7.8737   -0.1194   23.8825 C   0  0  0  0  0  0  0  0  0  0  0  0
    8.0155   -2.1541   22.4325 C   0  0  1  0  0  0  0  0  0  0  0  0
    8.6253   -0.7606   22.6923 C   0  0  3  0  0  0  0  0  0  0  0  0
    6.8725   -4.2656   23.2221 C   0  0  0  0  0  0  0  0  0  0  0  0
    8.4888   -3.0712   24.7270 C   0  0  0  0  0  0  0  0  0  0  0  0
   10.0771    5.6801   24.1045 C   0  0  0  0  0  0  0  0  0  0  0  0
    8.7425    2.1944   23.5582 C   0  0  0  0  0  0  0  0  0  0  0  0
    7.4313   -2.9038   23.6356 C   0  0  0  0  0  0  0  0  0  0  0  0
    6.3072    0.3768   17.3417 N   0  0  0  0  0  0  0  0  0  0  0  0
    7.2305   -0.6898   20.7785 N   0  0  0  0  0  0  0  0  0  0  0  0
    9.7242    4.3786   23.5893 N   0  0  0  0  0  0  0  0  0  0  0  0
    8.6625    1.0133   24.4989 N   0  3  3  0  0  0  0  0  0  0  0  0
    8.7545    1.0948   21.1291 O   0  0  0  0  0  0  0  0  0  0  0  0
    8.5352    3.6705   25.4539 O   0  0  0  0  0  0  0  0  0  0  0  0
   13.4290   -2.1383   21.1061 Cl  0  0  0  0  0  0  0  0  0  0  0  0
    2.5443    3.3508   20.6368 H   0  0  0  0  0  0  0  0  0  0  0  0
    3.5189    2.1137   22.5166 H   0  0  0  0  0  0  0  0  0  0  0  0
    3.3421    2.9744   18.3363 H   0  0  0  0  0  0  0  0  0  0  0  0
    5.3131    0.4893   22.1569 H   0  0  0  0  0  0  0  0  0  0  0  0
   12.5039    0.5968   24.9735 H   0  0  0  0  0  0  0  0  0  0  0  0
   13.9929   -0.5171   23.3772 H   0  0  0  0  0  0  0  0  0  0  0  0
   10.6081   -2.0166   21.2238 H   0  0  0  0  0  0  0  0  0  0  0  0
    4.9151    1.7511   16.7471 H   0  0  0  0  0  0  0  0  0  0  0  0
    7.6455   -0.9765   18.1038 H   0  0  0  0  0  0  0  0  0  0  0  0
    9.7393   -0.1144   25.8245 H   0  0  0  0  0  0  0  0  0  0  0  0
   10.4789    1.4537   25.3745 H   0  0  0  0  0  0  0  0  0  0  0  0
    7.0317   -2.7463   20.5868 H   0  0  0  0  0  0  0  0  0  0  0  0
    5.9454   -1.9507   21.7618 H   0  0  0  0  0  0  0  0  0  0  0  0
    6.9093    0.3114   23.5740 H   0  0  0  0  0  0  0  0  0  0  0  0
    7.6675   -0.8456   24.6799 H   0  0  0  0  0  0  0  0  0  0  0  0
    8.7884   -2.8277   22.0130 H   0  0  0  0  0  0  0  0  0  0  0  0
    7.6562   -4.9053   22.8018 H   0  0  0  0  0  0  0  0  0  0  0  0
    6.0891   -4.1490   22.4659 H   0  0  0  0  0  0  0  0  0  0  0  0
    6.4345   -4.7863   24.0802 H   0  0  0  0  0  0  0  0  0  0  0  0
    9.3391   -3.6617   24.3689 H   0  0  0  0  0  0  0  0  0  0  0  0
    8.0705   -3.5770   25.6037 H   0  0  0  0  0  0  0  0  0  0  0  0
    8.8668   -2.0962   25.0522 H   0  0  0  0  0  0  0  0  0  0  0  0
    9.3116    6.4123   23.8081 H   0  0  0  0  0  0  0  0  0  0  0  0
   10.1367    5.6360   25.2020 H   0  0  0  0  0  0  0  0  0  0  0  0
   11.0524    5.9838   23.6963 H   0  0  0  0  0  0  0  0  0  0  0  0
    9.5784    1.9986   22.8809 H   0  0  0  0  0  0  0  0  0  0  0  0
    7.8039    2.2476   22.9997 H   0  0  0  0  0  0  0  0  0  0  0  0
    6.6064   -2.3071   24.0480 H   0  0  0  0  0  0  0  0  0  0  0  0
   10.0630    4.1186   22.6674 H   0  0  0  0  0  0  0  0  0  0  0  0
    8.1232    1.3531   25.3119 H   0  0  0  0  0  0  0  0  0  0  0  0
  1  2  2  0  0  0  0
  1  3  1  0  0  0  0
  2  4  1  0  0  0  0
  3 10  2  0  0  0  0
  4 11  2  0  0  0  0
  5  6  2  0  0  0  0
  5 12  1  0  0  0  0
  6 15  1  0  0  0  0
  7 13  1  0  0  0  0
  7 15  2  0  0  0  0
  8 10  1  0  0  0  0
  8 28  2  0  0  0  0
  9 14  2  0  0  0  0
  9 28  1  0  0  0  0
 10 11  1  0  0  0  0
 11 14  1  0  0  0  0
 12 13  2  0  0  0  0
 12 18  1  0  0  0  0
 13 22  1  0  0  0  0
 14 29  1  0  0  0  0
 15 34  1  0  0  0  0
 16 22  1  0  0  0  0
 16 29  1  0  0  0  0
 16 32  2  0  0  0  0
 17 26  1  0  0  0  0
 17 30  1  0  0  0  0
 17 33  2  0  0  0  0
 18 31  1  0  0  0  0
 19 21  1  0  0  0  0
 19 29  1  0  0  0  0
 20 22  1  0  0  0  0
 20 31  1  0  0  0  0
 21 22  1  0  0  0  0
 21 27  1  6  0  0  0
 23 27  1  0  0  0  0
 24 27  1  0  0  0  0
 25 30  1  0  0  0  0
 26 31  1  0  0  0  0
  1 35  1  0  0  0  0
  2 36  1  0  0  0  0
  3 37  1  0  0  0  0
  4 38  1  0  0  0  0
  5 39  1  0  0  0  0
  6 40  1  0  0  0  0
  7 41  1  0  0  0  0
  8 42  1  0  0  0  0
  9 43  1  0  0  0  0
 18 44  1  0  0  0  0
 18 45  1  0  0  0  0
 19 46  1  0  0  0  0
 19 47  1  0  0  0  0
 20 48  1  0  0  0  0
 20 49  1  0  0  0  0
 21 50  1  0  0  0  0
 23 51  1  0  0  0  0
 23 52  1  0  0  0  0
 23 53  1  0  0  0  0
 24 54  1  0  0  0  0
 24 55  1  0  0  0  0
 24 56  1  0  0  0  0
 25 57  1  0  0  0  0
 25 58  1  0  0  0  0
 25 59  1  0  0  0  0
 26 60  1  0  0  0  0
 26 61  1  0  0  0  0
 27 62  1  0  0  0  0
 30 63  1  0  0  0  0
 31 64  1  0  0  0  0
M  CHG  1  31   1
M  END
> <scaffold>
tetrahydroisoquinoline-5spiro-isoquinoline

> <compound>
MAT-POS-50a80394-6

> <compound_smiles>
CC(C)C1CN(C(=O)C12CN(Cc3c2cc(cc3)Cl)CC(=O)NC)c4cncc5c4cccc5

> <enantiomer_smiles>
CC(C)[C@H]1CN(C(=O)[C@@]12C[N@](Cc3c2cc(cc3)Cl)CC(=O)NC)c4cncc5c4cccc5

> <clash_score>
0.7379639722655013

> <docking_score>
3.4028234663852886e+38

> <overlap_score>
0.9874821901321411

> <MMFF_internal_energy>
174.89368169208907

> <docked_smiles>
CC(C)[C@H]1CN(C(=O)[C@@]12C[N@@H+](Cc3c2cc(cc3)Cl)CC(=O)NC)c4cncc5c4cccc5

$$$$
VLA-UNK-f2612802-2_1
  -OEChem-01042202313D

 54 58  0     1  0  0  0  0  0999 V2000
    3.3444    2.6278   20.4409 C   0  0  0  0  0  0  0  0  0  0  0  0
    3.8974    1.9290   21.5048 C   0  0  0  0  0  0  0  0  0  0  0  0
    3.7877    2.4205   19.1658 C   0  0  0  0  0  0  0  0  0  0  0  0
    4.8986    1.0232   21.2985 C   0  0  0  0  0  0  0  0  0  0  0  0
   11.0005   -1.4332   22.0435 C   0  0  0  0  0  0  0  0  0  0  0  0
   12.0781    0.0316   24.1532 C   0  0  0  0  0  0  0  0  0  0  0  0
    5.3288    1.2339   17.6062 C   0  0  0  0  0  0  0  0  0  0  0  0
    6.8449   -0.2893   18.3747 C   0  0  0  0  0  0  0  0  0  0  0  0
    4.8238    1.4906   18.9051 C   0  0  0  0  0  0  0  0  0  0  0  0
    5.3995    0.7732   19.9944 C   0  0  0  0  0  0  0  0  0  0  0  0
   10.1421   -0.7766   22.9242 C   0  0  0  0  0  0  0  0  0  0  0  0
    6.4452   -0.1472   19.6975 C   0  0  0  0  0  0  0  0  0  0  0  0
   12.9147   -0.6032   23.2559 C   0  0  0  0  0  0  0  0  0  0  0  0
   10.7056   -0.0626   23.9890 C   0  0  0  0  0  0  0  0  0  0  0  0
   12.3697   -1.3298   22.2224 C   0  0  0  0  0  0  0  0  0  0  0  0
    8.2504    0.0168   21.4265 C   0  0  0  0  0  0  0  0  0  0  0  0
    8.1219    3.3496   24.9751 C   0  0  0  0  0  0  0  0  0  0  0  0
    8.0155   -2.1541   22.4325 C   0  0  0  0  0  0  0  0  0  0  0  0
    6.9880   -1.9367   21.3575 C   0  0  0  0  0  0  0  0  0  0  0  0
    7.8737   -0.1194   23.8825 C   0  0  0  0  0  0  0  0  0  0  0  0
    8.6253   -0.7606   22.6923 C   0  0  1  0  0  0  0  0  0  0  0  0
    8.9426    4.7444   23.0791 C   0  0  0  0  0  0  0  0  0  0  0  0
    7.7545    1.9227   25.2932 C   0  0  0  0  0  0  0  0  0  0  0  0
    6.3072    0.3768   17.3417 N   0  0  0  0  0  0  0  0  0  0  0  0
    7.2305   -0.6898   20.7785 N   0  0  0  0  0  0  0  0  0  0  0  0
    8.6625    1.0133   24.4989 N   0  0  3  0  0  0  0  0  0  0  0  0
    8.5342    3.4844   23.6571 N   0  0  0  0  0  0  0  0  0  0  0  0
    8.7591    1.0905   21.1292 O   0  0  0  0  0  0  0  0  0  0  0  0
    8.0551    4.2631   25.7933 O   0  0  0  0  0  0  0  0  0  0  0  0
   10.7612    1.7915   25.4956 O   0  0  0  0  0  0  0  0  0  0  0  0
    9.7224   -0.4066   26.1809 O   0  0  0  0  0  0  0  0  0  0  0  0
   14.2447   -0.4912   23.3990 F   0  0  0  0  0  0  0  0  0  0  0  0
    9.9496    0.5589   24.9527 S   0  0  0  0  0  0  0  0  0  0  0  0
   13.4251   -2.1416   21.1043 Cl  0  0  0  0  0  0  0  0  0  0  0  0
    2.5443    3.3508   20.6368 H   0  0  0  0  0  0  0  0  0  0  0  0
    3.5189    2.1137   22.5166 H   0  0  0  0  0  0  0  0  0  0  0  0
    3.3421    2.9744   18.3363 H   0  0  0  0  0  0  0  0  0  0  0  0
    5.3131    0.4893   22.1569 H   0  0  0  0  0  0  0  0  0  0  0  0
   10.6136   -2.0150   21.2244 H   0  0  0  0  0  0  0  0  0  0  0  0
   12.5165    0.6081   24.9650 H   0  0  0  0  0  0  0  0  0  0  0  0
    4.9151    1.7511   16.7471 H   0  0  0  0  0  0  0  0  0  0  0  0
    7.6455   -0.9765   18.1038 H   0  0  0  0  0  0  0  0  0  0  0  0
    7.5679   -2.6073   23.3254 H   0  0  0  0  0  0  0  0  0  0  0  0
    8.7585   -2.8793   22.0713 H   0  0  0  0  0  0  0  0  0  0  0  0
    7.0258   -2.7493   20.5941 H   0  0  0  0  0  0  0  0  0  0  0  0
    5.9562   -1.9483   21.7799 H   0  0  0  0  0  0  0  0  0  0  0  0
    6.9130    0.3005   23.5691 H   0  0  0  0  0  0  0  0  0  0  0  0
    7.6286   -0.8399   24.6654 H   0  0  0  0  0  0  0  0  0  0  0  0
    8.0675    5.2502   22.6451 H   0  0  0  0  0  0  0  0  0  0  0  0
    9.3833    5.3806   23.8609 H   0  0  0  0  0  0  0  0  0  0  0  0
    9.6885    4.5618   22.2915 H   0  0  0  0  0  0  0  0  0  0  0  0
    7.9513    1.7183   26.3497 H   0  0  0  0  0  0  0  0  0  0  0  0
    6.6936    1.7574   25.0837 H   0  0  0  0  0  0  0  0  0  0  0  0
    8.5496    2.6561   23.0691 H   0  0  0  0  0  0  0  0  0  0  0  0
  1  2  2  0  0  0  0
  1  3  1  0  0  0  0
  2  4  1  0  0  0  0
  3  9  2  0  0  0  0
  4 10  2  0  0  0  0
  5 11  2  0  0  0  0
  5 15  1  0  0  0  0
  6 13  1  0  0  0  0
  6 14  2  0  0  0  0
  7  9  1  0  0  0  0
  7 24  2  0  0  0  0
  8 12  2  0  0  0  0
  8 24  1  0  0  0  0
  9 10  1  0  0  0  0
 10 12  1  0  0  0  0
 11 14  1  0  0  0  0
 11 21  1  1  0  0  0
 12 25  1  0  0  0  0
 13 15  2  0  0  0  0
 13 32  1  0  0  0  0
 14 33  1  0  0  0  0
 15 34  1  0  0  0  0
 16 21  1  1  0  0  0
 16 25  1  0  0  0  0
 16 28  2  0  0  0  0
 17 23  1  0  0  0  0
 17 27  1  0  0  0  0
 17 29  2  0  0  0  0
 18 19  1  0  0  0  0
 18 21  1  6  0  0  0
 19 25  1  0  0  0  0
 20 21  1  6  0  0  0
 20 26  1  0  0  0  0
 22 27  1  0  0  0  0
 23 26  1  0  0  0  0
 26 33  1  0  0  0  0
 30 33  2  0  0  0  0
 31 33  2  0  0  0  0
  1 35  1  0  0  0  0
  2 36  1  0  0  0  0
  3 37  1  0  0  0  0
  4 38  1  0  0  0  0
  5 39  1  0  0  0  0
  6 40  1  0  0  0  0
  7 41  1  0  0  0  0
  8 42  1  0  0  0  0
 18 43  1  0  0  0  0
 18 44  1  0  0  0  0
 19 45  1  0  0  0  0
 19 46  1  0  0  0  0
 20 47  1  0  0  0  0
 20 48  1  0  0  0  0
 22 49  1  0  0  0  0
 22 50  1  0  0  0  0
 22 51  1  0  0  0  0
 23 52  1  0  0  0  0
 23 53  1  0  0  0  0
 27 54  1  0  0  0  0
M  END
> <scaffold>
tetralinlike-5spiro-isoquinoline

> <compound>
VLA-UNK-f2612802-2

> <compound_smiles>
CNC(=O)CN1C[C@]2(CCN(C2=O)c3cncc4c3cccc4)c5cc(c(cc5S1(=O)=O)F)Cl

> <enantiomer_smiles>
CNC(=O)C[N@]1C[C@]2(CCN(C2=O)c3cncc4c3cccc4)c5cc(c(cc5S1(=O)=O)F)Cl

> <clash_score>
0.718812131917704

> <docking_score>
3.4028234663852886e+38

> <overlap_score>
1.0

> <MMFF_internal_energy>
235.04417692927518

> <docked_smiles>
CNC(=O)C[N@@]1C[C@]2(CCN(C2=O)c3cncc4c3cccc4)c5cc(c(cc5S1(=O)=O)F)Cl

$$$$
ALP-POS-ecbed2ba-13_1
  -OEChem-01042202313D

 60 64  0     1  0  0  0  0  0999 V2000
    7.5079    2.7279   28.6653 C   0  0  0  0  0  0  0  0  0  0  0  0
    3.3444    2.6278   20.4409 C   0  0  0  0  0  0  0  0  0  0  0  0
    3.8974    1.9290   21.5048 C   0  0  0  0  0  0  0  0  0  0  0  0
    3.7877    2.4205   19.1658 C   0  0  0  0  0  0  0  0  0  0  0  0
    4.8986    1.0232   21.2985 C   0  0  0  0  0  0  0  0  0  0  0  0
   12.0781    0.0316   24.1532 C   0  0  0  0  0  0  0  0  0  0  0  0
   12.9147   -0.6032   23.2559 C   0  0  0  0  0  0  0  0  0  0  0  0
   11.0005   -1.4332   22.0435 C   0  0  0  0  0  0  0  0  0  0  0  0
    5.3288    1.2339   17.6062 C   0  0  0  0  0  0  0  0  0  0  0  0
    6.8449   -0.2893   18.3747 C   0  0  0  0  0  0  0  0  0  0  0  0
    4.8238    1.4906   18.9051 C   0  0  0  0  0  0  0  0  0  0  0  0
    5.3995    0.7732   19.9944 C   0  0  0  0  0  0  0  0  0  0  0  0
   10.7056   -0.0626   23.9890 C   0  0  0  0  0  0  0  0  0  0  0  0
   10.1421   -0.7766   22.9242 C   0  0  0  0  0  0  0  0  0  0  0  0
    6.4452   -0.1472   19.6975 C   0  0  0  0  0  0  0  0  0  0  0  0
   12.3697   -1.3298   22.2224 C   0  0  0  0  0  0  0  0  0  0  0  0
    8.2504    0.0168   21.4265 C   0  0  0  0  0  0  0  0  0  0  0  0
    9.9496    0.5589   24.9527 C   0  0  0  0  0  0  0  0  0  0  0  0
    8.0155   -2.1541   22.4325 C   0  0  0  0  0  0  0  0  0  0  0  0
    6.9880   -1.9367   21.3575 C   0  0  0  0  0  0  0  0  0  0  0  0
    7.8737   -0.1194   23.8825 C   0  0  0  0  0  0  0  0  0  0  0  0
    8.6253   -0.7606   22.6923 C   0  0  3  0  0  0  0  0  0  0  0  0
    5.3821    1.8477   27.7832 C   0  0  0  0  0  0  0  0  0  0  0  0
    6.8226    0.4559   29.2743 C   0  0  0  0  0  0  0  0  0  0  0  0
    7.6088    0.9304   26.9546 C   0  0  0  0  0  0  0  0  0  0  0  0
    6.8353    1.5122   28.1527 C   0  0  0  0  0  0  0  0  0  0  0  0
    8.0346    3.6803   29.0683 N   0  0  0  0  0  0  0  0  0  0  0  0
    6.3072    0.3768   17.3417 N   0  0  0  0  0  0  0  0  0  0  0  0
    7.2305   -0.6898   20.7785 N   0  0  0  0  0  0  0  0  0  0  0  0
    8.6625    1.0133   24.4989 N   0  0  3  0  0  0  0  0  0  0  0  0
    8.8314    1.0394   21.0790 O   0  0  0  0  0  0  0  0  0  0  0  0
    6.4559    2.2241   24.9990 O   0  0  0  0  0  0  0  0  0  0  0  0
    8.6119    3.1278   25.9583 O   0  0  0  0  0  0  0  0  0  0  0  0
    7.7725    2.0180   25.5623 S   0  0  0  0  0  0  0  0  0  0  0  0
   13.4285   -2.1410   21.1076 Cl  0  0  0  0  0  0  0  0  0  0  0  0
    2.5443    3.3508   20.6368 H   0  0  0  0  0  0  0  0  0  0  0  0
    3.5189    2.1137   22.5166 H   0  0  0  0  0  0  0  0  0  0  0  0
    3.3421    2.9744   18.3363 H   0  0  0  0  0  0  0  0  0  0  0  0
    5.3131    0.4893   22.1569 H   0  0  0  0  0  0  0  0  0  0  0  0
   12.5038    0.5986   24.9731 H   0  0  0  0  0  0  0  0  0  0  0  0
   13.9925   -0.5165   23.3773 H   0  0  0  0  0  0  0  0  0  0  0  0
   10.6052   -2.0169   21.2237 H   0  0  0  0  0  0  0  0  0  0  0  0
    4.9151    1.7511   16.7471 H   0  0  0  0  0  0  0  0  0  0  0  0
    7.6455   -0.9765   18.1038 H   0  0  0  0  0  0  0  0  0  0  0  0
    9.7866   -0.1187   25.8304 H   0  0  0  0  0  0  0  0  0  0  0  0
   10.4816    1.4567   25.3600 H   0  0  0  0  0  0  0  0  0  0  0  0
    7.5167   -2.5459   23.3332 H   0  0  0  0  0  0  0  0  0  0  0  0
    8.7666   -2.9029   22.1426 H   0  0  0  0  0  0  0  0  0  0  0  0
    7.0601   -2.7250   20.5715 H   0  0  0  0  0  0  0  0  0  0  0  0
    5.9530   -1.9963   21.7709 H   0  0  0  0  0  0  0  0  0  0  0  0
    6.8882    0.2643   23.5640 H   0  0  0  0  0  0  0  0  0  0  0  0
    7.6667   -0.8657   24.6729 H   0  0  0  0  0  0  0  0  0  0  0  0
    4.8576    0.9654   27.3999 H   0  0  0  0  0  0  0  0  0  0  0  0
    4.8258    2.2123   28.6557 H   0  0  0  0  0  0  0  0  0  0  0  0
    5.3223    2.6344   27.0232 H   0  0  0  0  0  0  0  0  0  0  0  0
    6.3336   -0.4698   28.9473 H   0  0  0  0  0  0  0  0  0  0  0  0
    6.2780    0.8161   30.1556 H   0  0  0  0  0  0  0  0  0  0  0  0
    7.8407    0.2016   29.5910 H   0  0  0  0  0  0  0  0  0  0  0  0
    8.6319    0.6587   27.2409 H   0  0  0  0  0  0  0  0  0  0  0  0
    7.1175    0.0282   26.5727 H   0  0  0  0  0  0  0  0  0  0  0  0
  1 26  1  0  0  0  0
  1 27  3  0  0  0  0
  2  3  2  0  0  0  0
  2  4  1  0  0  0  0
  3  5  1  0  0  0  0
  4 11  2  0  0  0  0
  5 12  2  0  0  0  0
  6  7  2  0  0  0  0
  6 13  1  0  0  0  0
  7 16  1  0  0  0  0
  8 14  1  0  0  0  0
  8 16  2  0  0  0  0
  9 11  1  0  0  0  0
  9 28  2  0  0  0  0
 10 15  2  0  0  0  0
 10 28  1  0  0  0  0
 11 12  1  0  0  0  0
 12 15  1  0  0  0  0
 13 14  2  0  0  0  0
 13 18  1  0  0  0  0
 14 22  1  0  0  0  0
 15 29  1  0  0  0  0
 16 35  1  0  0  0  0
 17 22  1  0  0  0  0
 17 29  1  0  0  0  0
 17 31  2  0  0  0  0
 18 30  1  0  0  0  0
 19 20  1  0  0  0  0
 19 22  1  0  0  0  0
 20 29  1  0  0  0  0
 21 22  1  0  0  0  0
 21 30  1  0  0  0  0
 23 26  1  0  0  0  0
 24 26  1  0  0  0  0
 25 26  1  0  0  0  0
 25 34  1  0  0  0  0
 30 34  1  0  0  0  0
 32 34  2  0  0  0  0
 33 34  2  0  0  0  0
  2 36  1  0  0  0  0
  3 37  1  0  0  0  0
  4 38  1  0  0  0  0
  5 39  1  0  0  0  0
  6 40  1  0  0  0  0
  7 41  1  0  0  0  0
  8 42  1  0  0  0  0
  9 43  1  0  0  0  0
 10 44  1  0  0  0  0
 18 45  1  0  0  0  0
 18 46  1  0  0  0  0
 19 47  1  0  0  0  0
 19 48  1  0  0  0  0
 20 49  1  0  0  0  0
 20 50  1  0  0  0  0
 21 51  1  0  0  0  0
 21 52  1  0  0  0  0
 23 53  1  0  0  0  0
 23 54  1  0  0  0  0
 23 55  1  0  0  0  0
 24 56  1  0  0  0  0
 24 57  1  0  0  0  0
 24 58  1  0  0  0  0
 25 59  1  0  0  0  0
 25 60  1  0  0  0  0
M  END
> <scaffold>
tetrahydroisoquinoline-5spiro-isoquinoline

> <compound>
ALP-POS-ecbed2ba-13

> <compound_smiles>
CC(C)(CS(=O)(=O)N1Cc2ccc(cc2C3(C1)CCN(C3=O)c4cncc5c4cccc5)Cl)C#N

> <enantiomer_smiles>
CC(C)(CS(=O)(=O)[N@]1Cc2ccc(cc2[C@@]3(C1)CCN(C3=O)c4cncc5c4cccc5)Cl)C#N

> <clash_score>
0

> <docking_score>
3.4028234663852886e+38

> <overlap_score>
0.9706058502197266

> <MMFF_internal_energy>
66.88286080975577

> <docked_smiles>
CC(C)(CS(=O)(=O)[N@]1Cc2ccc(cc2[C@@]3(C1)CCN(C3=O)c4cncc5c4cccc5)Cl)C#N

$$$$
MAT-POS-853c0ffa-17_1
  -OEChem-01042202313D

 60 65  0     1  0  0  0  0  0999 V2000
    3.3444    2.6278   20.4409 C   0  0  0  0  0  0  0  0  0  0  0  0
    3.7877    2.4205   19.1658 C   0  0  0  0  0  0  0  0  0  0  0  0
   12.0781    0.0316   24.1532 C   0  0  0  0  0  0  0  0  0  0  0  0
    3.8974    1.9290   21.5048 C   0  0  0  0  0  0  0  0  0  0  0  0
   12.9147   -0.6032   23.2559 C   0  0  0  0  0  0  0  0  0  0  0  0
   11.0005   -1.4332   22.0435 C   0  0  0  0  0  0  0  0  0  0  0  0
    5.3288    1.2339   17.6062 C   0  0  0  0  0  0  0  0  0  0  0  0
    6.8449   -0.2893   18.3747 C   0  0  0  0  0  0  0  0  0  0  0  0
    4.8238    1.4906   18.9051 C   0  0  0  0  0  0  0  0  0  0  0  0
    5.3995    0.7732   19.9944 C   0  0  0  0  0  0  0  0  0  0  0  0
   10.7056   -0.0626   23.9890 C   0  0  0  0  0  0  0  0  0  0  0  0
   10.1421   -0.7766   22.9242 C   0  0  0  0  0  0  0  0  0  0  0  0
    6.4452   -0.1472   19.6975 C   0  0  0  0  0  0  0  0  0  0  0  0
   12.3697   -1.3298   22.2224 C   0  0  0  0  0  0  0  0  0  0  0  0
    4.8986    1.0232   21.2985 C   0  0  0  0  0  0  0  0  0  0  0  0
    8.2504    0.0168   21.4265 C   0  0  0  0  0  0  0  0  0  0  0  0
    9.9496    0.5589   24.9527 C   0  0  0  0  0  0  0  0  0  0  0  0
    7.0144    3.7993   28.0281 C   0  0  0  0  0  0  0  0  0  0  0  0
    6.0584    2.7767   28.5726 C   0  0  0  0  0  0  0  0  0  0  0  0
    8.0155   -2.1541   22.4325 C   0  0  0  0  0  0  0  0  0  0  0  0
    6.9880   -1.9367   21.3575 C   0  0  0  0  0  0  0  0  0  0  0  0
    7.8737   -0.1194   23.8825 C   0  0  0  0  0  0  0  0  0  0  0  0
    8.6253   -0.7606   22.6923 C   0  0  3  0  0  0  0  0  0  0  0  0
    6.2729    2.8850   27.0810 C   0  0  0  0  0  0  0  0  0  0  0  0
    5.1672    3.4766   26.2507 C   0  0  0  0  0  0  0  0  0  0  0  0
    7.0560    1.7877   26.3958 C   0  0  0  0  0  0  0  0  0  0  0  0
    6.3072    0.3768   17.3417 N   0  0  0  0  0  0  0  0  0  0  0  0
    7.2305   -0.6898   20.7785 N   0  0  0  0  0  0  0  0  0  0  0  0
    8.6625    1.0133   24.4989 N   0  0  3  0  0  0  0  0  0  0  0  0
    8.7514    1.0901   21.1243 O   0  0  0  0  0  0  0  0  0  0  0  0
    6.9865    2.7904   23.9840 O   0  0  0  0  0  0  0  0  0  0  0  0
    8.9572    3.3243   25.4729 O   0  0  0  0  0  0  0  0  0  0  0  0
    7.9493    2.4047   24.9925 S   0  0  0  0  0  0  0  0  0  0  0  0
   13.4297   -2.1462   21.1126 Cl  0  0  0  0  0  0  0  0  0  0  0  0
    5.4637    0.2451   22.7511 Cl  0  0  0  0  0  0  0  0  0  0  0  0
    2.5436    3.3504   20.6371 H   0  0  0  0  0  0  0  0  0  0  0  0
    3.3414    2.9737   18.3360 H   0  0  0  0  0  0  0  0  0  0  0  0
   12.5046    0.5852   24.9818 H   0  0  0  0  0  0  0  0  0  0  0  0
    3.5007    2.1328   22.5078 H   0  0  0  0  0  0  0  0  0  0  0  0
   13.9930   -0.5302   23.3869 H   0  0  0  0  0  0  0  0  0  0  0  0
   10.6139   -2.0326   21.2341 H   0  0  0  0  0  0  0  0  0  0  0  0
    4.9145    1.7510   16.7474 H   0  0  0  0  0  0  0  0  0  0  0  0
    7.6459   -0.9748   18.1001 H   0  0  0  0  0  0  0  0  0  0  0  0
    9.7590   -0.1307   25.8193 H   0  0  0  0  0  0  0  0  0  0  0  0
   10.4971    1.4368   25.3930 H   0  0  0  0  0  0  0  0  0  0  0  0
    6.7203    4.8409   28.0809 H   0  0  0  0  0  0  0  0  0  0  0  0
    8.0732    3.6333   28.1877 H   0  0  0  0  0  0  0  0  0  0  0  0
    6.4772    1.9259   29.0970 H   0  0  0  0  0  0  0  0  0  0  0  0
    5.1243    3.1335   28.9902 H   0  0  0  0  0  0  0  0  0  0  0  0
    7.5139   -2.5724   23.3172 H   0  0  0  0  0  0  0  0  0  0  0  0
    8.7710   -2.8991   22.1377 H   0  0  0  0  0  0  0  0  0  0  0  0
    7.0576   -2.7256   20.5712 H   0  0  0  0  0  0  0  0  0  0  0  0
    5.9526   -1.9955   21.7714 H   0  0  0  0  0  0  0  0  0  0  0  0
    6.8959    0.2848   23.5662 H   0  0  0  0  0  0  0  0  0  0  0  0
    7.6721   -0.8632   24.6716 H   0  0  0  0  0  0  0  0  0  0  0  0
    4.7092    2.7153   25.6073 H   0  0  0  0  0  0  0  0  0  0  0  0
    5.5465    4.2793   25.6067 H   0  0  0  0  0  0  0  0  0  0  0  0
    4.3802    3.8981   26.8881 H   0  0  0  0  0  0  0  0  0  0  0  0
    6.3903    0.9996   26.0331 H   0  0  0  0  0  0  0  0  0  0  0  0
    7.7894    1.3466   27.0764 H   0  0  0  0  0  0  0  0  0  0  0  0
  1  2  2  0  0  0  0
  1  4  1  0  0  0  0
  2  9  1  0  0  0  0
  3  5  2  0  0  0  0
  3 11  1  0  0  0  0
  4 15  2  0  0  0  0
  5 14  1  0  0  0  0
  6 12  1  0  0  0  0
  6 14  2  0  0  0  0
  7  9  2  0  0  0  0
  7 27  1  0  0  0  0
  8 13  1  0  0  0  0
  8 27  2  0  0  0  0
  9 10  1  0  0  0  0
 10 13  2  0  0  0  0
 10 15  1  0  0  0  0
 11 12  2  0  0  0  0
 11 17  1  0  0  0  0
 12 23  1  0  0  0  0
 13 28  1  0  0  0  0
 14 34  1  0  0  0  0
 15 35  1  0  0  0  0
 16 23  1  0  0  0  0
 16 28  1  0  0  0  0
 16 30  2  0  0  0  0
 17 29  1  0  0  0  0
 18 19  1  0  0  0  0
 18 24  1  0  0  0  0
 19 24  1  0  0  0  0
 20 21  1  0  0  0  0
 20 23  1  0  0  0  0
 21 28  1  0  0  0  0
 22 23  1  0  0  0  0
 22 29  1  0  0  0  0
 24 25  1  0  0  0  0
 24 26  1  0  0  0  0
 26 33  1  0  0  0  0
 29 33  1  0  0  0  0
 31 33  2  0  0  0  0
 32 33  2  0  0  0  0
  1 36  1  0  0  0  0
  2 37  1  0  0  0  0
  3 38  1  0  0  0  0
  4 39  1  0  0  0  0
  5 40  1  0  0  0  0
  6 41  1  0  0  0  0
  7 42  1  0  0  0  0
  8 43  1  0  0  0  0
 17 44  1  0  0  0  0
 17 45  1  0  0  0  0
 18 46  1  0  0  0  0
 18 47  1  0  0  0  0
 19 48  1  0  0  0  0
 19 49  1  0  0  0  0
 20 50  1  0  0  0  0
 20 51  1  0  0  0  0
 21 52  1  0  0  0  0
 21 53  1  0  0  0  0
 22 54  1  0  0  0  0
 22 55  1  0  0  0  0
 25 56  1  0  0  0  0
 25 57  1  0  0  0  0
 25 58  1  0  0  0  0
 26 59  1  0  0  0  0
 26 60  1  0  0  0  0
M  END
> <scaffold>
tetrahydroisoquinoline-5spiro-isoquinoline

> <compound>
MAT-POS-853c0ffa-17

> <compound_smiles>
CC1(CC1)CS(=O)(=O)N2Cc3ccc(cc3C4(C2)CCN(C4=O)c5cncc6c5c(ccc6)Cl)Cl

> <enantiomer_smiles>
CC1(CC1)CS(=O)(=O)[N@@]2Cc3ccc(cc3[C@@]4(C2)CCN(C4=O)c5cncc6c5c(ccc6)Cl)Cl

> <clash_score>
0

> <docking_score>
3.4028234663852886e+38

> <overlap_score>
0.9799993634223938

> <MMFF_internal_energy>
222.11805542064405

> <docked_smiles>
CC1(CC1)CS(=O)(=O)[N@@]2Cc3ccc(cc3[C@@]4(C2)CCN(C4=O)c5cncc6c5c(ccc6)Cl)Cl

$$$$
ALP-POS-ecbed2ba-12_1
  -OEChem-01042202313D

 62 67  0     1  0  0  0  0  0999 V2000
    3.3444    2.6278   20.4409 C   0  0  0  0  0  0  0  0  0  0  0  0
    3.8974    1.9290   21.5048 C   0  0  0  0  0  0  0  0  0  0  0  0
    3.7877    2.4205   19.1658 C   0  0  0  0  0  0  0  0  0  0  0  0
    4.8986    1.0232   21.2985 C   0  0  0  0  0  0  0  0  0  0  0  0
   12.0781    0.0316   24.1532 C   0  0  0  0  0  0  0  0  0  0  0  0
   12.9147   -0.6032   23.2559 C   0  0  0  0  0  0  0  0  0  0  0  0
   11.0005   -1.4332   22.0435 C   0  0  0  0  0  0  0  0  0  0  0  0
    5.3288    1.2339   17.6062 C   0  0  0  0  0  0  0  0  0  0  0  0
    6.8449   -0.2893   18.3747 C   0  0  0  0  0  0  0  0  0  0  0  0
    4.8238    1.4906   18.9051 C   0  0  0  0  0  0  0  0  0  0  0  0
    5.3995    0.7732   19.9944 C   0  0  0  0  0  0  0  0  0  0  0  0
   10.7056   -0.0626   23.9890 C   0  0  0  0  0  0  0  0  0  0  0  0
   10.1421   -0.7766   22.9242 C   0  0  0  0  0  0  0  0  0  0  0  0
    6.4452   -0.1472   19.6975 C   0  0  0  0  0  0  0  0  0  0  0  0
   12.3697   -1.3298   22.2224 C   0  0  0  0  0  0  0  0  0  0  0  0
    8.2504    0.0168   21.4265 C   0  0  0  0  0  0  0  0  0  0  0  0
    6.7850    2.6041   25.0047 C   0  0  0  0  0  0  0  0  0  0  0  0
    9.9496    0.5589   24.9527 C   0  0  0  0  0  0  0  0  0  0  0  0
    7.8382    5.1511   21.3987 C   0  0  0  0  0  0  0  0  0  0  0  0
    6.7537    6.1851   21.5183 C   0  0  0  0  0  0  0  0  0  0  0  0
    8.0155   -2.1541   22.4325 C   0  0  0  0  0  0  0  0  0  0  0  0
    6.9880   -1.9367   21.3575 C   0  0  0  0  0  0  0  0  0  0  0  0
    7.8737   -0.1194   23.8825 C   0  0  0  0  0  0  0  0  0  0  0  0
    7.3175    5.5409   22.7543 C   0  0  0  0  0  0  0  0  0  0  0  0
    8.6253   -0.7606   22.6923 C   0  0  3  0  0  0  0  0  0  0  0  0
    7.8612    1.7144   25.5743 C   0  0  0  0  0  0  0  0  0  0  0  0
    6.4916    4.5845   23.5453 C   0  0  0  0  0  0  0  0  0  0  0  0
    6.3072    0.3768   17.3417 N   0  0  0  0  0  0  0  0  0  0  0  0
    7.2305   -0.6898   20.7785 N   0  0  0  0  0  0  0  0  0  0  0  0
    7.3198    3.6044   24.2067 N   0  0  0  0  0  0  0  0  0  0  0  0
    8.6625    1.0133   24.4989 N   0  3  3  0  0  0  0  0  0  0  0  0
    8.8307    1.0396   21.0789 O   0  0  0  0  0  0  0  0  0  0  0  0
    5.5885    2.4445   25.2311 O   0  0  0  0  0  0  0  0  0  0  0  0
   13.4286   -2.1403   21.1072 Cl  0  0  0  0  0  0  0  0  0  0  0  0
    2.5443    3.3508   20.6368 H   0  0  0  0  0  0  0  0  0  0  0  0
    3.5189    2.1137   22.5166 H   0  0  0  0  0  0  0  0  0  0  0  0
    3.3421    2.9744   18.3363 H   0  0  0  0  0  0  0  0  0  0  0  0
    5.3131    0.4893   22.1569 H   0  0  0  0  0  0  0  0  0  0  0  0
   12.5040    0.5973   24.9741 H   0  0  0  0  0  0  0  0  0  0  0  0
   13.9926   -0.5176   23.3780 H   0  0  0  0  0  0  0  0  0  0  0  0
   10.6057   -2.0168   21.2239 H   0  0  0  0  0  0  0  0  0  0  0  0
    4.9151    1.7511   16.7471 H   0  0  0  0  0  0  0  0  0  0  0  0
    7.6455   -0.9765   18.1038 H   0  0  0  0  0  0  0  0  0  0  0  0
    9.7630   -0.1207   25.8244 H   0  0  0  0  0  0  0  0  0  0  0  0
   10.4585    1.4662   25.3691 H   0  0  0  0  0  0  0  0  0  0  0  0
    7.5679    4.1820   20.9980 H   0  0  0  0  0  0  0  0  0  0  0  0
    8.8294    5.4899   21.1232 H   0  0  0  0  0  0  0  0  0  0  0  0
    7.0175    7.2174   21.3234 H   0  0  0  0  0  0  0  0  0  0  0  0
    5.7569    5.9086   21.1975 H   0  0  0  0  0  0  0  0  0  0  0  0
    7.5159   -2.5477   23.3319 H   0  0  0  0  0  0  0  0  0  0  0  0
    8.7613   -2.9061   22.1409 H   0  0  0  0  0  0  0  0  0  0  0  0
    7.0594   -2.7244   20.5709 H   0  0  0  0  0  0  0  0  0  0  0  0
    5.9531   -1.9957   21.7710 H   0  0  0  0  0  0  0  0  0  0  0  0
    6.8972    0.2930   23.5750 H   0  0  0  0  0  0  0  0  0  0  0  0
    7.6778   -0.8486   24.6901 H   0  0  0  0  0  0  0  0  0  0  0  0
    7.9608    6.1417   23.3858 H   0  0  0  0  0  0  0  0  0  0  0  0
    7.4204    0.9331   26.1997 H   0  0  0  0  0  0  0  0  0  0  0  0
    8.5777    2.3054   26.1514 H   0  0  0  0  0  0  0  0  0  0  0  0
    5.9220    5.1431   24.3027 H   0  0  0  0  0  0  0  0  0  0  0  0
    5.7943    4.0679   22.8694 H   0  0  0  0  0  0  0  0  0  0  0  0
    8.3273    3.6730   24.0956 H   0  0  0  0  0  0  0  0  0  0  0  0
    8.7953    1.7233   23.7550 H   0  0  0  0  0  0  0  0  0  0  0  0
  1  2  2  0  0  0  0
  1  3  1  0  0  0  0
  2  4  1  0  0  0  0
  3 10  2  0  0  0  0
  4 11  2  0  0  0  0
  5  6  2  0  0  0  0
  5 12  1  0  0  0  0
  6 15  1  0  0  0  0
  7 13  1  0  0  0  0
  7 15  2  0  0  0  0
  8 10  1  0  0  0  0
  8 28  2  0  0  0  0
  9 14  2  0  0  0  0
  9 28  1  0  0  0  0
 10 11  1  0  0  0  0
 11 14  1  0  0  0  0
 12 13  2  0  0  0  0
 12 18  1  0  0  0  0
 13 25  1  0  0  0  0
 14 29  1  0  0  0  0
 15 34  1  0  0  0  0
 16 25  1  0  0  0  0
 16 29  1  0  0  0  0
 16 32  2  0  0  0  0
 17 26  1  0  0  0  0
 17 30  1  0  0  0  0
 17 33  2  0  0  0  0
 18 31  1  0  0  0  0
 19 20  1  0  0  0  0
 19 24  1  0  0  0  0
 20 24  1  0  0  0  0
 21 22  1  0  0  0  0
 21 25  1  0  0  0  0
 22 29  1  0  0  0  0
 23 25  1  0  0  0  0
 23 31  1  0  0  0  0
 24 27  1  0  0  0  0
 26 31  1  0  0  0  0
 27 30  1  0  0  0  0
  1 35  1  0  0  0  0
  2 36  1  0  0  0  0
  3 37  1  0  0  0  0
  4 38  1  0  0  0  0
  5 39  1  0  0  0  0
  6 40  1  0  0  0  0
  7 41  1  0  0  0  0
  8 42  1  0  0  0  0
  9 43  1  0  0  0  0
 18 44  1  0  0  0  0
 18 45  1  0  0  0  0
 19 46  1  0  0  0  0
 19 47  1  0  0  0  0
 20 48  1  0  0  0  0
 20 49  1  0  0  0  0
 21 50  1  0  0  0  0
 21 51  1  0  0  0  0
 22 52  1  0  0  0  0
 22 53  1  0  0  0  0
 23 54  1  0  0  0  0
 23 55  1  0  0  0  0
 24 56  1  0  0  0  0
 26 57  1  0  0  0  0
 26 58  1  0  0  0  0
 27 59  1  0  0  0  0
 27 60  1  0  0  0  0
 30 61  1  0  0  0  0
 31 62  1  0  0  0  0
M  CHG  1  31   1
M  END
> <scaffold>
tetrahydroisoquinoline-5spiro-isoquinoline

> <compound>
ALP-POS-ecbed2ba-12

> <compound_smiles>
c1ccc2c(c1)cncc2N3CCC4(C3=O)CN(Cc5c4cc(cc5)Cl)CC(=O)NCC6CC6

> <enantiomer_smiles>
c1ccc2c(c1)cncc2N3CC[C@]4(C3=O)C[N@](Cc5c4cc(cc5)Cl)CC(=O)NCC6CC6

> <clash_score>
0

> <docking_score>
3.4028234663852886e+38

> <overlap_score>
0.9718149900436401

> <MMFF_internal_energy>
167.11081351270423

> <docked_smiles>
c1ccc2c(c1)cncc2N3CC[C@]4(C3=O)C[N@H+](Cc5c4cc(cc5)Cl)CC(=O)NCC6CC6

$$$$
ALP-POS-ecbed2ba-9_1
  -OEChem-01042202313D

 57 62  0     1  0  0  0  0  0999 V2000
    5.6145    0.1897   29.5122 C   0  0  0  0  0  0  0  0  0  0  0  0
    3.3444    2.6278   20.4409 C   0  0  0  0  0  0  0  0  0  0  0  0
    3.8974    1.9290   21.5048 C   0  0  0  0  0  0  0  0  0  0  0  0
    3.7877    2.4205   19.1658 C   0  0  0  0  0  0  0  0  0  0  0  0
    4.8986    1.0232   21.2985 C   0  0  0  0  0  0  0  0  0  0  0  0
   12.0781    0.0316   24.1532 C   0  0  0  0  0  0  0  0  0  0  0  0
   12.9147   -0.6032   23.2559 C   0  0  0  0  0  0  0  0  0  0  0  0
   11.0005   -1.4332   22.0435 C   0  0  0  0  0  0  0  0  0  0  0  0
    5.3288    1.2339   17.6062 C   0  0  0  0  0  0  0  0  0  0  0  0
    6.8449   -0.2893   18.3747 C   0  0  0  0  0  0  0  0  0  0  0  0
    4.8238    1.4906   18.9051 C   0  0  0  0  0  0  0  0  0  0  0  0
    5.3995    0.7732   19.9944 C   0  0  0  0  0  0  0  0  0  0  0  0
   10.7056   -0.0626   23.9890 C   0  0  0  0  0  0  0  0  0  0  0  0
   10.1421   -0.7766   22.9242 C   0  0  0  0  0  0  0  0  0  0  0  0
    6.4452   -0.1472   19.6975 C   0  0  0  0  0  0  0  0  0  0  0  0
   12.3697   -1.3298   22.2224 C   0  0  0  0  0  0  0  0  0  0  0  0
    8.2504    0.0168   21.4265 C   0  0  0  0  0  0  0  0  0  0  0  0
    9.9496    0.5589   24.9527 C   0  0  0  0  0  0  0  0  0  0  0  0
    8.0155   -2.1541   22.4325 C   0  0  0  0  0  0  0  0  0  0  0  0
    6.9880   -1.9367   21.3575 C   0  0  0  0  0  0  0  0  0  0  0  0
    6.4872    0.0214   27.1374 C   0  0  0  0  0  0  0  0  0  0  0  0
    7.4953    1.4157   28.3336 C   0  0  0  0  0  0  0  0  0  0  0  0
    7.8737   -0.1194   23.8825 C   0  0  0  0  0  0  0  0  0  0  0  0
    6.7717    0.0878   28.6557 C   0  0  0  0  0  0  0  0  0  0  0  0
    8.6253   -0.7606   22.6923 C   0  0  3  0  0  0  0  0  0  0  0  0
    4.6842    0.2717   30.2007 N   0  0  0  0  0  0  0  0  0  0  0  0
    6.3072    0.3768   17.3417 N   0  0  0  0  0  0  0  0  0  0  0  0
    7.2305   -0.6898   20.7785 N   0  0  0  0  0  0  0  0  0  0  0  0
    8.6625    1.0133   24.4989 N   0  0  3  0  0  0  0  0  0  0  0  0
    7.6086    0.9894   26.8994 N   0  0  0  0  0  0  0  0  0  0  0  0
    8.8314    1.0394   21.0790 O   0  0  0  0  0  0  0  0  0  0  0  0
    8.6199    3.1337   25.9406 O   0  0  0  0  0  0  0  0  0  0  0  0
    6.4554    2.2433   24.9958 O   0  0  0  0  0  0  0  0  0  0  0  0
    7.7725    2.0180   25.5623 S   0  0  0  0  0  0  0  0  0  0  0  0
   13.4285   -2.1410   21.1076 Cl  0  0  0  0  0  0  0  0  0  0  0  0
    2.5443    3.3508   20.6368 H   0  0  0  0  0  0  0  0  0  0  0  0
    3.5189    2.1137   22.5166 H   0  0  0  0  0  0  0  0  0  0  0  0
    3.3421    2.9744   18.3363 H   0  0  0  0  0  0  0  0  0  0  0  0
    5.3131    0.4893   22.1569 H   0  0  0  0  0  0  0  0  0  0  0  0
   12.5038    0.5986   24.9731 H   0  0  0  0  0  0  0  0  0  0  0  0
   13.9925   -0.5165   23.3773 H   0  0  0  0  0  0  0  0  0  0  0  0
   10.6052   -2.0169   21.2237 H   0  0  0  0  0  0  0  0  0  0  0  0
    4.9151    1.7511   16.7471 H   0  0  0  0  0  0  0  0  0  0  0  0
    7.6455   -0.9765   18.1038 H   0  0  0  0  0  0  0  0  0  0  0  0
    9.7866   -0.1187   25.8304 H   0  0  0  0  0  0  0  0  0  0  0  0
   10.4816    1.4567   25.3600 H   0  0  0  0  0  0  0  0  0  0  0  0
    7.5167   -2.5459   23.3332 H   0  0  0  0  0  0  0  0  0  0  0  0
    8.7666   -2.9029   22.1426 H   0  0  0  0  0  0  0  0  0  0  0  0
    7.0601   -2.7250   20.5715 H   0  0  0  0  0  0  0  0  0  0  0  0
    5.9530   -1.9963   21.7709 H   0  0  0  0  0  0  0  0  0  0  0  0
    6.6610   -0.9489   26.6650 H   0  0  0  0  0  0  0  0  0  0  0  0
    5.5227    0.4259   26.8101 H   0  0  0  0  0  0  0  0  0  0  0  0
    6.8971    2.3277   28.4413 H   0  0  0  0  0  0  0  0  0  0  0  0
    8.4682    1.5526   28.8124 H   0  0  0  0  0  0  0  0  0  0  0  0
    6.8882    0.2643   23.5640 H   0  0  0  0  0  0  0  0  0  0  0  0
    7.6667   -0.8657   24.6729 H   0  0  0  0  0  0  0  0  0  0  0  0
    7.4699   -0.6950   28.9798 H   0  0  0  0  0  0  0  0  0  0  0  0
  1 24  1  0  0  0  0
  1 26  3  0  0  0  0
  2  3  2  0  0  0  0
  2  4  1  0  0  0  0
  3  5  1  0  0  0  0
  4 11  2  0  0  0  0
  5 12  2  0  0  0  0
  6  7  2  0  0  0  0
  6 13  1  0  0  0  0
  7 16  1  0  0  0  0
  8 14  1  0  0  0  0
  8 16  2  0  0  0  0
  9 11  1  0  0  0  0
  9 27  2  0  0  0  0
 10 15  2  0  0  0  0
 10 27  1  0  0  0  0
 11 12  1  0  0  0  0
 12 15  1  0  0  0  0
 13 14  2  0  0  0  0
 13 18  1  0  0  0  0
 14 25  1  0  0  0  0
 15 28  1  0  0  0  0
 16 35  1  0  0  0  0
 17 25  1  0  0  0  0
 17 28  1  0  0  0  0
 17 31  2  0  0  0  0
 18 29  1  0  0  0  0
 19 20  1  0  0  0  0
 19 25  1  0  0  0  0
 20 28  1  0  0  0  0
 21 24  1  0  0  0  0
 21 30  1  0  0  0  0
 22 24  1  0  0  0  0
 22 30  1  0  0  0  0
 23 25  1  0  0  0  0
 23 29  1  0  0  0  0
 29 34  1  0  0  0  0
 30 34  1  0  0  0  0
 32 34  2  0  0  0  0
 33 34  2  0  0  0  0
  2 36  1  0  0  0  0
  3 37  1  0  0  0  0
  4 38  1  0  0  0  0
  5 39  1  0  0  0  0
  6 40  1  0  0  0  0
  7 41  1  0  0  0  0
  8 42  1  0  0  0  0
  9 43  1  0  0  0  0
 10 44  1  0  0  0  0
 18 45  1  0  0  0  0
 18 46  1  0  0  0  0
 19 47  1  0  0  0  0
 19 48  1  0  0  0  0
 20 49  1  0  0  0  0
 20 50  1  0  0  0  0
 21 51  1  0  0  0  0
 21 52  1  0  0  0  0
 22 53  1  0  0  0  0
 22 54  1  0  0  0  0
 23 55  1  0  0  0  0
 23 56  1  0  0  0  0
 24 57  1  0  0  0  0
M  END
> <scaffold>
tetrahydroisoquinoline-5spiro-isoquinoline

> <compound>
ALP-POS-ecbed2ba-9

> <compound_smiles>
c1ccc2c(c1)cncc2N3CCC4(C3=O)CN(Cc5c4cc(cc5)Cl)S(=O)(=O)N6CC(C6)C#N

> <enantiomer_smiles>
c1ccc2c(c1)cncc2N3CC[C@]4(C3=O)C[N@](Cc5c4cc(cc5)Cl)S(=O)(=O)N6CC(C6)C#N

> <clash_score>
0

> <docking_score>
3.4028234663852886e+38

> <overlap_score>
0.9702911376953125

> <MMFF_internal_energy>
-27.09808781179766

> <docked_smiles>
c1ccc2c(c1)cncc2N3CC[C@]4(C3=O)C[N@](Cc5c4cc(cc5)Cl)S(=O)(=O)N6CC(C6)C#N

$$$$
MAT-POS-853c0ffa-21_1
  -OEChem-01042202313D

 60 65  0     1  0  0  0  0  0999 V2000
    3.7877    2.4205   19.1658 C   0  0  0  0  0  0  0  0  0  0  0  0
   12.0781    0.0316   24.1532 C   0  0  0  0  0  0  0  0  0  0  0  0
    3.3444    2.6278   20.4409 C   0  0  0  0  0  0  0  0  0  0  0  0
   12.9147   -0.6032   23.2559 C   0  0  0  0  0  0  0  0  0  0  0  0
    4.8986    1.0232   21.2985 C   0  0  0  0  0  0  0  0  0  0  0  0
   11.0005   -1.4332   22.0435 C   0  0  0  0  0  0  0  0  0  0  0  0
    5.3288    1.2339   17.6062 C   0  0  0  0  0  0  0  0  0  0  0  0
    6.8449   -0.2893   18.3747 C   0  0  0  0  0  0  0  0  0  0  0  0
    4.8238    1.4906   18.9051 C   0  0  0  0  0  0  0  0  0  0  0  0
    5.3995    0.7732   19.9944 C   0  0  0  0  0  0  0  0  0  0  0  0
   10.7056   -0.0626   23.9890 C   0  0  0  0  0  0  0  0  0  0  0  0
   10.1421   -0.7766   22.9242 C   0  0  0  0  0  0  0  0  0  0  0  0
    6.4452   -0.1472   19.6975 C   0  0  0  0  0  0  0  0  0  0  0  0
    3.8974    1.9290   21.5048 C   0  0  0  0  0  0  0  0  0  0  0  0
   12.3697   -1.3298   22.2224 C   0  0  0  0  0  0  0  0  0  0  0  0
    8.2504    0.0168   21.4265 C   0  0  0  0  0  0  0  0  0  0  0  0
    9.9496    0.5589   24.9527 C   0  0  0  0  0  0  0  0  0  0  0  0
    7.5795    2.5373   28.9869 C   0  0  0  0  0  0  0  0  0  0  0  0
    7.1785    1.1826   29.4969 C   0  0  0  0  0  0  0  0  0  0  0  0
    8.0155   -2.1541   22.4325 C   0  0  0  0  0  0  0  0  0  0  0  0
    6.9880   -1.9367   21.3575 C   0  0  0  0  0  0  0  0  0  0  0  0
    7.8737   -0.1194   23.8825 C   0  0  0  0  0  0  0  0  0  0  0  0
    8.6253   -0.7606   22.6923 C   0  0  3  0  0  0  0  0  0  0  0  0
    6.8379    1.5828   28.0804 C   0  0  0  0  0  0  0  0  0  0  0  0
    5.4005    1.8877   27.7599 C   0  0  0  0  0  0  0  0  0  0  0  0
    7.6088    0.9304   26.9546 C   0  0  0  0  0  0  0  0  0  0  0  0
    6.3072    0.3768   17.3417 N   0  0  0  0  0  0  0  0  0  0  0  0
    7.2305   -0.6898   20.7785 N   0  0  0  0  0  0  0  0  0  0  0  0
    8.6625    1.0133   24.4989 N   0  0  3  0  0  0  0  0  0  0  0  0
    8.8314    1.0394   21.0790 O   0  0  0  0  0  0  0  0  0  0  0  0
    6.4559    2.2241   24.9990 O   0  0  0  0  0  0  0  0  0  0  0  0
    8.6119    3.1278   25.9583 O   0  0  0  0  0  0  0  0  0  0  0  0
    3.4330    2.1555   22.7513 F   0  0  0  0  0  0  0  0  0  0  0  0
    7.7725    2.0180   25.5623 S   0  0  0  0  0  0  0  0  0  0  0  0
   13.4285   -2.1410   21.1076 Cl  0  0  0  0  0  0  0  0  0  0  0  0
    3.3411    2.9735   18.3363 H   0  0  0  0  0  0  0  0  0  0  0  0
   12.5038    0.5986   24.9731 H   0  0  0  0  0  0  0  0  0  0  0  0
    2.5441    3.3506   20.6360 H   0  0  0  0  0  0  0  0  0  0  0  0
   13.9925   -0.5165   23.3773 H   0  0  0  0  0  0  0  0  0  0  0  0
    5.3117    0.4882   22.1567 H   0  0  0  0  0  0  0  0  0  0  0  0
   10.6052   -2.0169   21.2237 H   0  0  0  0  0  0  0  0  0  0  0  0
    4.9147    1.7515   16.7472 H   0  0  0  0  0  0  0  0  0  0  0  0
    7.6456   -0.9763   18.1039 H   0  0  0  0  0  0  0  0  0  0  0  0
    9.7866   -0.1187   25.8304 H   0  0  0  0  0  0  0  0  0  0  0  0
   10.4816    1.4567   25.3600 H   0  0  0  0  0  0  0  0  0  0  0  0
    7.0508    3.3986   29.3777 H   0  0  0  0  0  0  0  0  0  0  0  0
    8.6328    2.7143   28.8042 H   0  0  0  0  0  0  0  0  0  0  0  0
    7.9633    0.4526   29.6559 H   0  0  0  0  0  0  0  0  0  0  0  0
    6.3812    1.1368   30.2294 H   0  0  0  0  0  0  0  0  0  0  0  0
    7.5167   -2.5459   23.3332 H   0  0  0  0  0  0  0  0  0  0  0  0
    8.7666   -2.9029   22.1426 H   0  0  0  0  0  0  0  0  0  0  0  0
    7.0601   -2.7250   20.5715 H   0  0  0  0  0  0  0  0  0  0  0  0
    5.9530   -1.9963   21.7709 H   0  0  0  0  0  0  0  0  0  0  0  0
    6.8882    0.2643   23.5640 H   0  0  0  0  0  0  0  0  0  0  0  0
    7.6667   -0.8657   24.6729 H   0  0  0  0  0  0  0  0  0  0  0  0
    4.9759    1.1244   27.0964 H   0  0  0  0  0  0  0  0  0  0  0  0
    5.3077    2.8595   27.2598 H   0  0  0  0  0  0  0  0  0  0  0  0
    4.7928    1.9179   28.6726 H   0  0  0  0  0  0  0  0  0  0  0  0
    7.0989    0.0296   26.6018 H   0  0  0  0  0  0  0  0  0  0  0  0
    8.6192    0.6630   27.2756 H   0  0  0  0  0  0  0  0  0  0  0  0
  1  3  2  0  0  0  0
  1  9  1  0  0  0  0
  2  4  2  0  0  0  0
  2 11  1  0  0  0  0
  3 14  1  0  0  0  0
  4 15  1  0  0  0  0
  5 10  1  0  0  0  0
  5 14  2  0  0  0  0
  6 12  1  0  0  0  0
  6 15  2  0  0  0  0
  7  9  2  0  0  0  0
  7 27  1  0  0  0  0
  8 13  1  0  0  0  0
  8 27  2  0  0  0  0
  9 10  1  0  0  0  0
 10 13  2  0  0  0  0
 11 12  2  0  0  0  0
 11 17  1  0  0  0  0
 12 23  1  0  0  0  0
 13 28  1  0  0  0  0
 14 33  1  0  0  0  0
 15 35  1  0  0  0  0
 16 23  1  0  0  0  0
 16 28  1  0  0  0  0
 16 30  2  0  0  0  0
 17 29  1  0  0  0  0
 18 19  1  0  0  0  0
 18 24  1  0  0  0  0
 19 24  1  0  0  0  0
 20 21  1  0  0  0  0
 20 23  1  0  0  0  0
 21 28  1  0  0  0  0
 22 23  1  0  0  0  0
 22 29  1  0  0  0  0
 24 25  1  0  0  0  0
 24 26  1  0  0  0  0
 26 34  1  0  0  0  0
 29 34  1  0  0  0  0
 31 34  2  0  0  0  0
 32 34  2  0  0  0  0
  1 36  1  0  0  0  0
  2 37  1  0  0  0  0
  3 38  1  0  0  0  0
  4 39  1  0  0  0  0
  5 40  1  0  0  0  0
  6 41  1  0  0  0  0
  7 42  1  0  0  0  0
  8 43  1  0  0  0  0
 17 44  1  0  0  0  0
 17 45  1  0  0  0  0
 18 46  1  0  0  0  0
 18 47  1  0  0  0  0
 19 48  1  0  0  0  0
 19 49  1  0  0  0  0
 20 50  1  0  0  0  0
 20 51  1  0  0  0  0
 21 52  1  0  0  0  0
 21 53  1  0  0  0  0
 22 54  1  0  0  0  0
 22 55  1  0  0  0  0
 25 56  1  0  0  0  0
 25 57  1  0  0  0  0
 25 58  1  0  0  0  0
 26 59  1  0  0  0  0
 26 60  1  0  0  0  0
M  END
> <scaffold>
tetrahydroisoquinoline-5spiro-isoquinoline

> <compound>
MAT-POS-853c0ffa-21

> <compound_smiles>
CC1(CC1)CS(=O)(=O)N2Cc3ccc(cc3C4(C2)CCN(C4=O)c5cncc6c5cc(cc6)F)Cl

> <enantiomer_smiles>
CC1(CC1)CS(=O)(=O)[N@]2Cc3ccc(cc3[C@@]4(C2)CCN(C4=O)c5cncc6c5cc(cc6)F)Cl

> <clash_score>
0

> <docking_score>
3.4028234663852886e+38

> <overlap_score>
0.9808188676834106

> <MMFF_internal_energy>
136.77042137151554

> <docked_smiles>
CC1(CC1)CS(=O)(=O)[N@]2Cc3ccc(cc3[C@@]4(C2)CCN(C4=O)c5cncc6c5cc(cc6)F)Cl

$$$$
ALP-POS-ecbed2ba-16_1
  -OEChem-01042202313D

 59 63  0     1  0  0  0  0  0999 V2000
    9.9797    6.2554   25.4811 C   0  0  0  0  0  0  0  0  0  0  0  0
    3.3444    2.6278   20.4409 C   0  0  0  0  0  0  0  0  0  0  0  0
    3.8974    1.9290   21.5048 C   0  0  0  0  0  0  0  0  0  0  0  0
    3.7877    2.4205   19.1658 C   0  0  0  0  0  0  0  0  0  0  0  0
    4.8986    1.0232   21.2985 C   0  0  0  0  0  0  0  0  0  0  0  0
   12.0781    0.0316   24.1532 C   0  0  0  0  0  0  0  0  0  0  0  0
   12.9147   -0.6032   23.2559 C   0  0  0  0  0  0  0  0  0  0  0  0
   11.0005   -1.4332   22.0435 C   0  0  0  0  0  0  0  0  0  0  0  0
    5.3288    1.2339   17.6062 C   0  0  0  0  0  0  0  0  0  0  0  0
    6.8449   -0.2893   18.3747 C   0  0  0  0  0  0  0  0  0  0  0  0
    4.8238    1.4906   18.9051 C   0  0  0  0  0  0  0  0  0  0  0  0
    5.3995    0.7732   19.9944 C   0  0  0  0  0  0  0  0  0  0  0  0
   10.7056   -0.0626   23.9890 C   0  0  0  0  0  0  0  0  0  0  0  0
   10.1421   -0.7766   22.9242 C   0  0  0  0  0  0  0  0  0  0  0  0
    6.4452   -0.1472   19.6975 C   0  0  0  0  0  0  0  0  0  0  0  0
   12.3697   -1.3298   22.2224 C   0  0  0  0  0  0  0  0  0  0  0  0
    8.2504    0.0168   21.4265 C   0  0  0  0  0  0  0  0  0  0  0  0
    9.9496    0.5589   24.9527 C   0  0  0  0  0  0  0  0  0  0  0  0
    8.0155   -2.1541   22.4325 C   0  0  0  0  0  0  0  0  0  0  0  0
    6.9880   -1.9367   21.3575 C   0  0  0  0  0  0  0  0  0  0  0  0
    7.8737   -0.1194   23.8825 C   0  0  0  0  0  0  0  0  0  0  0  0
    8.6253   -0.7606   22.6923 C   0  0  3  0  0  0  0  0  0  0  0  0
    6.9162    3.2794   23.2811 C   0  0  0  0  0  0  0  0  0  0  0  0
    8.8113    5.3673   25.5725 C   0  0  0  0  0  0  0  0  0  0  0  0
    8.8099    4.3120   24.4715 C   0  0  0  0  0  0  0  0  0  0  0  0
   10.9009    6.9574   25.4108 N   0  0  0  0  0  0  0  0  0  0  0  0
    6.3072    0.3768   17.3417 N   0  0  0  0  0  0  0  0  0  0  0  0
    7.2305   -0.6898   20.7785 N   0  0  0  0  0  0  0  0  0  0  0  0
    8.6625    1.0133   24.4989 N   0  0  3  0  0  0  0  0  0  0  0  0
    7.6172    3.4328   24.5820 N   0  0  3  0  0  0  0  0  0  0  0  0
    8.8314    1.0394   21.0790 O   0  0  0  0  0  0  0  0  0  0  0  0
    8.6085    2.3287   26.7066 O   0  0  0  0  0  0  0  0  0  0  0  0
    6.4581    1.4363   25.7592 O   0  0  0  0  0  0  0  0  0  0  0  0
    7.7725    2.0180   25.5623 S   0  0  0  0  0  0  0  0  0  0  0  0
   13.4285   -2.1410   21.1076 Cl  0  0  0  0  0  0  0  0  0  0  0  0
    2.5443    3.3508   20.6368 H   0  0  0  0  0  0  0  0  0  0  0  0
    3.5189    2.1137   22.5166 H   0  0  0  0  0  0  0  0  0  0  0  0
    3.3421    2.9744   18.3363 H   0  0  0  0  0  0  0  0  0  0  0  0
    5.3131    0.4893   22.1569 H   0  0  0  0  0  0  0  0  0  0  0  0
   12.5038    0.5986   24.9731 H   0  0  0  0  0  0  0  0  0  0  0  0
   13.9925   -0.5165   23.3773 H   0  0  0  0  0  0  0  0  0  0  0  0
   10.6052   -2.0169   21.2237 H   0  0  0  0  0  0  0  0  0  0  0  0
    4.9151    1.7511   16.7471 H   0  0  0  0  0  0  0  0  0  0  0  0
    7.6455   -0.9765   18.1038 H   0  0  0  0  0  0  0  0  0  0  0  0
    9.7866   -0.1187   25.8304 H   0  0  0  0  0  0  0  0  0  0  0  0
   10.4816    1.4567   25.3600 H   0  0  0  0  0  0  0  0  0  0  0  0
    7.5167   -2.5459   23.3332 H   0  0  0  0  0  0  0  0  0  0  0  0
    8.7666   -2.9029   22.1426 H   0  0  0  0  0  0  0  0  0  0  0  0
    7.0601   -2.7250   20.5715 H   0  0  0  0  0  0  0  0  0  0  0  0
    5.9530   -1.9963   21.7709 H   0  0  0  0  0  0  0  0  0  0  0  0
    6.8882    0.2643   23.5640 H   0  0  0  0  0  0  0  0  0  0  0  0
    7.6667   -0.8657   24.6729 H   0  0  0  0  0  0  0  0  0  0  0  0
    6.0429    2.6230   23.4097 H   0  0  0  0  0  0  0  0  0  0  0  0
    6.5840    4.2658   22.9252 H   0  0  0  0  0  0  0  0  0  0  0  0
    7.6027    2.8361   22.5448 H   0  0  0  0  0  0  0  0  0  0  0  0
    7.8999    5.9705   25.4872 H   0  0  0  0  0  0  0  0  0  0  0  0
    8.7883    4.8885   26.5585 H   0  0  0  0  0  0  0  0  0  0  0  0
    8.7898    4.8032   23.4932 H   0  0  0  0  0  0  0  0  0  0  0  0
    9.7173    3.6996   24.5165 H   0  0  0  0  0  0  0  0  0  0  0  0
  1 24  1  0  0  0  0
  1 26  3  0  0  0  0
  2  3  2  0  0  0  0
  2  4  1  0  0  0  0
  3  5  1  0  0  0  0
  4 11  2  0  0  0  0
  5 12  2  0  0  0  0
  6  7  2  0  0  0  0
  6 13  1  0  0  0  0
  7 16  1  0  0  0  0
  8 14  1  0  0  0  0
  8 16  2  0  0  0  0
  9 11  1  0  0  0  0
  9 27  2  0  0  0  0
 10 15  2  0  0  0  0
 10 27  1  0  0  0  0
 11 12  1  0  0  0  0
 12 15  1  0  0  0  0
 13 14  2  0  0  0  0
 13 18  1  0  0  0  0
 14 22  1  0  0  0  0
 15 28  1  0  0  0  0
 16 35  1  0  0  0  0
 17 22  1  0  0  0  0
 17 28  1  0  0  0  0
 17 31  2  0  0  0  0
 18 29  1  0  0  0  0
 19 20  1  0  0  0  0
 19 22  1  0  0  0  0
 20 28  1  0  0  0  0
 21 22  1  0  0  0  0
 21 29  1  0  0  0  0
 23 30  1  0  0  0  0
 24 25  1  0  0  0  0
 25 30  1  0  0  0  0
 29 34  1  0  0  0  0
 30 34  1  0  0  0  0
 32 34  2  0  0  0  0
 33 34  2  0  0  0  0
  2 36  1  0  0  0  0
  3 37  1  0  0  0  0
  4 38  1  0  0  0  0
  5 39  1  0  0  0  0
  6 40  1  0  0  0  0
  7 41  1  0  0  0  0
  8 42  1  0  0  0  0
  9 43  1  0  0  0  0
 10 44  1  0  0  0  0
 18 45  1  0  0  0  0
 18 46  1  0  0  0  0
 19 47  1  0  0  0  0
 19 48  1  0  0  0  0
 20 49  1  0  0  0  0
 20 50  1  0  0  0  0
 21 51  1  0  0  0  0
 21 52  1  0  0  0  0
 23 53  1  0  0  0  0
 23 54  1  0  0  0  0
 23 55  1  0  0  0  0
 24 56  1  0  0  0  0
 24 57  1  0  0  0  0
 25 58  1  0  0  0  0
 25 59  1  0  0  0  0
M  END
> <scaffold>
tetrahydroisoquinoline-5spiro-isoquinoline

> <compound>
ALP-POS-ecbed2ba-16

> <compound_smiles>
CN(CCC#N)S(=O)(=O)N1Cc2ccc(cc2C3(C1)CCN(C3=O)c4cncc5c4cccc5)Cl

> <enantiomer_smiles>
C[N@@](CCC#N)S(=O)(=O)[N@]1Cc2ccc(cc2[C@@]3(C1)CCN(C3=O)c4cncc5c4cccc5)Cl

> <clash_score>
0

> <docking_score>
3.4028234663852886e+38

> <overlap_score>
0.9717051982879639

> <MMFF_internal_energy>
-32.229153993751844

> <docked_smiles>
C[N@](CCC#N)S(=O)(=O)[N@]1Cc2ccc(cc2[C@@]3(C1)CCN(C3=O)c4cncc5c4cccc5)Cl

$$$$
MAT-POS-69786b79-4_1
  -OEChem-01042202313D

 60 65  0     1  0  0  0  0  0999 V2000
    5.3560    5.2777   24.9467 C   0  0  0  0  0  0  0  0  0  0  0  0
    3.3444    2.6278   20.4409 C   0  0  0  0  0  0  0  0  0  0  0  0
    3.8974    1.9290   21.5048 C   0  0  0  0  0  0  0  0  0  0  0  0
    3.7877    2.4205   19.1658 C   0  0  0  0  0  0  0  0  0  0  0  0
    4.8986    1.0232   21.2985 C   0  0  0  0  0  0  0  0  0  0  0  0
   12.0781    0.0316   24.1532 C   0  0  0  0  0  0  0  0  0  0  0  0
   12.9147   -0.6032   23.2559 C   0  0  0  0  0  0  0  0  0  0  0  0
   11.0005   -1.4332   22.0435 C   0  0  0  0  0  0  0  0  0  0  0  0
    5.3288    1.2339   17.6062 C   0  0  0  0  0  0  0  0  0  0  0  0
    6.8449   -0.2893   18.3747 C   0  0  0  0  0  0  0  0  0  0  0  0
    4.8238    1.4906   18.9051 C   0  0  0  0  0  0  0  0  0  0  0  0
    5.3995    0.7732   19.9944 C   0  0  0  0  0  0  0  0  0  0  0  0
   10.7056   -0.0626   23.9890 C   0  0  0  0  0  0  0  0  0  0  0  0
   10.1421   -0.7766   22.9242 C   0  0  0  0  0  0  0  0  0  0  0  0
    6.4452   -0.1472   19.6975 C   0  0  0  0  0  0  0  0  0  0  0  0
   12.3697   -1.3298   22.2224 C   0  0  0  0  0  0  0  0  0  0  0  0
    8.2504    0.0168   21.4265 C   0  0  0  0  0  0  0  0  0  0  0  0
    6.7850    2.6041   25.0047 C   0  0  0  0  0  0  0  0  0  0  0  0
    9.9496    0.5589   24.9527 C   0  0  0  0  0  0  0  0  0  0  0  0
    3.5792    3.5694   25.4705 C   0  0  0  0  0  0  0  0  0  0  0  0
    3.8631    4.3182   26.7357 C   0  0  0  0  0  0  0  0  0  0  0  0
    8.0155   -2.1541   22.4325 C   0  0  0  0  0  0  0  0  0  0  0  0
    6.9880   -1.9367   21.3575 C   0  0  0  0  0  0  0  0  0  0  0  0
    7.8737   -0.1194   23.8825 C   0  0  0  0  0  0  0  0  0  0  0  0
    4.9649    4.1271   25.7155 C   0  0  0  0  0  0  0  0  0  0  0  0
    8.6253   -0.7606   22.6923 C   0  0  3  0  0  0  0  0  0  0  0  0
    7.8612    1.7144   25.5743 C   0  0  0  0  0  0  0  0  0  0  0  0
    5.6717    6.2060   24.3264 N   0  0  0  0  0  0  0  0  0  0  0  0
    6.3072    0.3768   17.3417 N   0  0  0  0  0  0  0  0  0  0  0  0
    7.2305   -0.6898   20.7785 N   0  0  0  0  0  0  0  0  0  0  0  0
    6.0523    3.2234   26.0062 N   0  0  0  0  0  0  0  0  0  0  0  0
    8.6625    1.0133   24.4989 N   0  3  3  0  0  0  0  0  0  0  0  0
    8.8307    1.0396   21.0789 O   0  0  0  0  0  0  0  0  0  0  0  0
    6.5982    2.7493   23.7996 O   0  0  0  0  0  0  0  0  0  0  0  0
   13.4286   -2.1403   21.1072 Cl  0  0  0  0  0  0  0  0  0  0  0  0
    2.5443    3.3508   20.6368 H   0  0  0  0  0  0  0  0  0  0  0  0
    3.5189    2.1137   22.5166 H   0  0  0  0  0  0  0  0  0  0  0  0
    3.3421    2.9744   18.3363 H   0  0  0  0  0  0  0  0  0  0  0  0
    5.3131    0.4893   22.1569 H   0  0  0  0  0  0  0  0  0  0  0  0
   12.5040    0.5973   24.9741 H   0  0  0  0  0  0  0  0  0  0  0  0
   13.9926   -0.5176   23.3780 H   0  0  0  0  0  0  0  0  0  0  0  0
   10.6057   -2.0168   21.2239 H   0  0  0  0  0  0  0  0  0  0  0  0
    4.9151    1.7511   16.7471 H   0  0  0  0  0  0  0  0  0  0  0  0
    7.6455   -0.9765   18.1038 H   0  0  0  0  0  0  0  0  0  0  0  0
    9.7630   -0.1207   25.8244 H   0  0  0  0  0  0  0  0  0  0  0  0
   10.4585    1.4662   25.3691 H   0  0  0  0  0  0  0  0  0  0  0  0
    3.4349    2.4974   25.5434 H   0  0  0  0  0  0  0  0  0  0  0  0
    2.9417    4.0477   24.7356 H   0  0  0  0  0  0  0  0  0  0  0  0
    3.4162    5.2992   26.8501 H   0  0  0  0  0  0  0  0  0  0  0  0
    3.9090    3.7481   27.6566 H   0  0  0  0  0  0  0  0  0  0  0  0
    7.5159   -2.5477   23.3319 H   0  0  0  0  0  0  0  0  0  0  0  0
    8.7613   -2.9061   22.1409 H   0  0  0  0  0  0  0  0  0  0  0  0
    7.0594   -2.7244   20.5709 H   0  0  0  0  0  0  0  0  0  0  0  0
    5.9531   -1.9957   21.7710 H   0  0  0  0  0  0  0  0  0  0  0  0
    6.8972    0.2930   23.5750 H   0  0  0  0  0  0  0  0  0  0  0  0
    7.6778   -0.8486   24.6901 H   0  0  0  0  0  0  0  0  0  0  0  0
    7.4204    0.9331   26.1997 H   0  0  0  0  0  0  0  0  0  0  0  0
    8.5777    2.3054   26.1514 H   0  0  0  0  0  0  0  0  0  0  0  0
    6.2643    3.0239   26.9796 H   0  0  0  0  0  0  0  0  0  0  0  0
    8.7953    1.7233   23.7550 H   0  0  0  0  0  0  0  0  0  0  0  0
  1 25  1  0  0  0  0
  1 28  3  0  0  0  0
  2  3  2  0  0  0  0
  2  4  1  0  0  0  0
  3  5  1  0  0  0  0
  4 11  2  0  0  0  0
  5 12  2  0  0  0  0
  6  7  2  0  0  0  0
  6 13  1  0  0  0  0
  7 16  1  0  0  0  0
  8 14  1  0  0  0  0
  8 16  2  0  0  0  0
  9 11  1  0  0  0  0
  9 29  2  0  0  0  0
 10 15  2  0  0  0  0
 10 29  1  0  0  0  0
 11 12  1  0  0  0  0
 12 15  1  0  0  0  0
 13 14  2  0  0  0  0
 13 19  1  0  0  0  0
 14 26  1  0  0  0  0
 15 30  1  0  0  0  0
 16 35  1  0  0  0  0
 17 26  1  0  0  0  0
 17 30  1  0  0  0  0
 17 33  2  0  0  0  0
 18 27  1  0  0  0  0
 18 31  1  0  0  0  0
 18 34  2  0  0  0  0
 19 32  1  0  0  0  0
 20 21  1  0  0  0  0
 20 25  1  0  0  0  0
 21 25  1  0  0  0  0
 22 23  1  0  0  0  0
 22 26  1  0  0  0  0
 23 30  1  0  0  0  0
 24 26  1  0  0  0  0
 24 32  1  0  0  0  0
 25 31  1  0  0  0  0
 27 32  1  0  0  0  0
  2 36  1  0  0  0  0
  3 37  1  0  0  0  0
  4 38  1  0  0  0  0
  5 39  1  0  0  0  0
  6 40  1  0  0  0  0
  7 41  1  0  0  0  0
  8 42  1  0  0  0  0
  9 43  1  0  0  0  0
 10 44  1  0  0  0  0
 19 45  1  0  0  0  0
 19 46  1  0  0  0  0
 20 47  1  0  0  0  0
 20 48  1  0  0  0  0
 21 49  1  0  0  0  0
 21 50  1  0  0  0  0
 22 51  1  0  0  0  0
 22 52  1  0  0  0  0
 23 53  1  0  0  0  0
 23 54  1  0  0  0  0
 24 55  1  0  0  0  0
 24 56  1  0  0  0  0
 27 57  1  0  0  0  0
 27 58  1  0  0  0  0
 31 59  1  0  0  0  0
 32 60  1  0  0  0  0
M  CHG  1  32   1
M  END
> <scaffold>
tetrahydroisoquinoline-5spiro-isoquinoline

> <compound>
MAT-POS-69786b79-4

> <compound_smiles>
c1ccc2c(c1)cncc2N3CCC4(C3=O)CN(Cc5c4cc(cc5)Cl)CC(=O)NC6(CC6)C#N

> <enantiomer_smiles>
c1ccc2c(c1)cncc2N3CC[C@]4(C3=O)C[N@](Cc5c4cc(cc5)Cl)CC(=O)NC6(CC6)C#N

> <clash_score>
0

> <docking_score>
3.4028234663852886e+38

> <overlap_score>
0.9701797366142273

> <MMFF_internal_energy>
186.5935095855955

> <docked_smiles>
c1ccc2c(c1)cncc2N3CC[C@]4(C3=O)C[N@H+](Cc5c4cc(cc5)Cl)CC(=O)NC6(CC6)C#N

$$$$
ALP-POS-ecbed2ba-10_1
  -OEChem-01042202313D

 60 65  0     1  0  0  0  0  0999 V2000
    3.3444    2.6278   20.4409 C   0  0  0  0  0  0  0  0  0  0  0  0
    3.8974    1.9290   21.5048 C   0  0  0  0  0  0  0  0  0  0  0  0
    3.7877    2.4205   19.1658 C   0  0  0  0  0  0  0  0  0  0  0  0
    4.8986    1.0232   21.2985 C   0  0  0  0  0  0  0  0  0  0  0  0
   12.0781    0.0316   24.1532 C   0  0  0  0  0  0  0  0  0  0  0  0
   12.9147   -0.6032   23.2559 C   0  0  0  0  0  0  0  0  0  0  0  0
   11.0005   -1.4332   22.0435 C   0  0  0  0  0  0  0  0  0  0  0  0
    5.3288    1.2339   17.6062 C   0  0  0  0  0  0  0  0  0  0  0  0
    6.8449   -0.2893   18.3747 C   0  0  0  0  0  0  0  0  0  0  0  0
    4.8238    1.4906   18.9051 C   0  0  0  0  0  0  0  0  0  0  0  0
    5.3995    0.7732   19.9944 C   0  0  0  0  0  0  0  0  0  0  0  0
   10.7056   -0.0626   23.9890 C   0  0  0  0  0  0  0  0  0  0  0  0
   10.1421   -0.7766   22.9242 C   0  0  0  0  0  0  0  0  0  0  0  0
    6.4452   -0.1472   19.6975 C   0  0  0  0  0  0  0  0  0  0  0  0
   12.3697   -1.3298   22.2224 C   0  0  0  0  0  0  0  0  0  0  0  0
    8.2504    0.0168   21.4265 C   0  0  0  0  0  0  0  0  0  0  0  0
    9.9496    0.5589   24.9527 C   0  0  0  0  0  0  0  0  0  0  0  0
    8.0155   -2.1541   22.4325 C   0  0  0  0  0  0  0  0  0  0  0  0
    6.9880   -1.9367   21.3575 C   0  0  0  0  0  0  0  0  0  0  0  0
    7.6609    1.2118   27.5622 C   0  0  0  0  0  0  0  0  0  0  0  0
    6.2042    2.6838   27.2254 C   0  0  0  0  0  0  0  0  0  0  0  0
    7.8737   -0.1194   23.8825 C   0  0  0  0  0  0  0  0  0  0  0  0
    6.4494    1.6958   28.3838 C   0  0  0  0  0  0  0  0  0  0  0  0
    8.6253   -0.7606   22.6923 C   0  0  3  0  0  0  0  0  0  0  0  0
    5.5595    2.6802   30.3233 C   0  0  0  0  0  0  0  0  0  0  0  0
    6.3072    0.3768   17.3417 N   0  0  0  0  0  0  0  0  0  0  0  0
    7.2305   -0.6898   20.7785 N   0  0  0  0  0  0  0  0  0  0  0  0
    8.6625    1.0133   24.4989 N   0  0  3  0  0  0  0  0  0  0  0  0
    7.0814    1.8542   26.3397 N   0  0  0  0  0  0  0  0  0  0  0  0
    8.7514    1.0901   21.1243 O   0  0  0  0  0  0  0  0  0  0  0  0
    8.9787    3.3193   25.4497 O   0  0  0  0  0  0  0  0  0  0  0  0
    7.0002    2.8038   23.9698 O   0  0  0  0  0  0  0  0  0  0  0  0
    6.7452    2.2750   29.6645 O   0  0  0  0  0  0  0  0  0  0  0  0
    7.9493    2.4047   24.9925 S   0  0  0  0  0  0  0  0  0  0  0  0
   13.4297   -2.1462   21.1126 Cl  0  0  0  0  0  0  0  0  0  0  0  0
    2.5443    3.3508   20.6368 H   0  0  0  0  0  0  0  0  0  0  0  0
    3.5189    2.1137   22.5166 H   0  0  0  0  0  0  0  0  0  0  0  0
    3.3421    2.9744   18.3363 H   0  0  0  0  0  0  0  0  0  0  0  0
    5.3131    0.4893   22.1569 H   0  0  0  0  0  0  0  0  0  0  0  0
   12.5046    0.5852   24.9818 H   0  0  0  0  0  0  0  0  0  0  0  0
   13.9930   -0.5302   23.3869 H   0  0  0  0  0  0  0  0  0  0  0  0
   10.6139   -2.0326   21.2341 H   0  0  0  0  0  0  0  0  0  0  0  0
    4.9151    1.7511   16.7471 H   0  0  0  0  0  0  0  0  0  0  0  0
    7.6455   -0.9765   18.1038 H   0  0  0  0  0  0  0  0  0  0  0  0
    9.7590   -0.1307   25.8193 H   0  0  0  0  0  0  0  0  0  0  0  0
   10.4971    1.4368   25.3930 H   0  0  0  0  0  0  0  0  0  0  0  0
    7.5139   -2.5724   23.3172 H   0  0  0  0  0  0  0  0  0  0  0  0
    8.7710   -2.8991   22.1377 H   0  0  0  0  0  0  0  0  0  0  0  0
    7.0576   -2.7256   20.5712 H   0  0  0  0  0  0  0  0  0  0  0  0
    5.9526   -1.9955   21.7714 H   0  0  0  0  0  0  0  0  0  0  0  0
    8.6218    1.6521   27.8485 H   0  0  0  0  0  0  0  0  0  0  0  0
    7.7615    0.1284   27.4621 H   0  0  0  0  0  0  0  0  0  0  0  0
    5.1746    2.7437   26.8647 H   0  0  0  0  0  0  0  0  0  0  0  0
    6.6046    3.6908   27.3827 H   0  0  0  0  0  0  0  0  0  0  0  0
    6.8959    0.2848   23.5662 H   0  0  0  0  0  0  0  0  0  0  0  0
    7.6721   -0.8632   24.6716 H   0  0  0  0  0  0  0  0  0  0  0  0
    5.6639    0.9354   28.4715 H   0  0  0  0  0  0  0  0  0  0  0  0
    5.8114    3.1166   31.2929 H   0  0  0  0  0  0  0  0  0  0  0  0
    4.9040    1.8164   30.4597 H   0  0  0  0  0  0  0  0  0  0  0  0
    5.0505    3.4283   29.7108 H   0  0  0  0  0  0  0  0  0  0  0  0
  1  2  2  0  0  0  0
  1  3  1  0  0  0  0
  2  4  1  0  0  0  0
  3 10  2  0  0  0  0
  4 11  2  0  0  0  0
  5  6  2  0  0  0  0
  5 12  1  0  0  0  0
  6 15  1  0  0  0  0
  7 13  1  0  0  0  0
  7 15  2  0  0  0  0
  8 10  1  0  0  0  0
  8 26  2  0  0  0  0
  9 14  2  0  0  0  0
  9 26  1  0  0  0  0
 10 11  1  0  0  0  0
 11 14  1  0  0  0  0
 12 13  2  0  0  0  0
 12 17  1  0  0  0  0
 13 24  1  0  0  0  0
 14 27  1  0  0  0  0
 15 35  1  0  0  0  0
 16 24  1  0  0  0  0
 16 27  1  0  0  0  0
 16 30  2  0  0  0  0
 17 28  1  0  0  0  0
 18 19  1  0  0  0  0
 18 24  1  0  0  0  0
 19 27  1  0  0  0  0
 20 23  1  0  0  0  0
 20 29  1  0  0  0  0
 21 23  1  0  0  0  0
 21 29  1  0  0  0  0
 22 24  1  0  0  0  0
 22 28  1  0  0  0  0
 23 33  1  0  0  0  0
 25 33  1  0  0  0  0
 28 34  1  0  0  0  0
 29 34  1  0  0  0  0
 31 34  2  0  0  0  0
 32 34  2  0  0  0  0
  1 36  1  0  0  0  0
  2 37  1  0  0  0  0
  3 38  1  0  0  0  0
  4 39  1  0  0  0  0
  5 40  1  0  0  0  0
  6 41  1  0  0  0  0
  7 42  1  0  0  0  0
  8 43  1  0  0  0  0
  9 44  1  0  0  0  0
 17 45  1  0  0  0  0
 17 46  1  0  0  0  0
 18 47  1  0  0  0  0
 18 48  1  0  0  0  0
 19 49  1  0  0  0  0
 19 50  1  0  0  0  0
 20 51  1  0  0  0  0
 20 52  1  0  0  0  0
 21 53  1  0  0  0  0
 21 54  1  0  0  0  0
 22 55  1  0  0  0  0
 22 56  1  0  0  0  0
 23 57  1  0  0  0  0
 25 58  1  0  0  0  0
 25 59  1  0  0  0  0
 25 60  1  0  0  0  0
M  END
> <scaffold>
tetrahydroisoquinoline-5spiro-isoquinoline

> <compound>
ALP-POS-ecbed2ba-10

> <compound_smiles>
COC1CN(C1)S(=O)(=O)N2Cc3ccc(cc3C4(C2)CCN(C4=O)c5cncc6c5cccc6)Cl

> <enantiomer_smiles>
COC1CN(C1)S(=O)(=O)[N@]2Cc3ccc(cc3[C@@]4(C2)CCN(C4=O)c5cncc6c5cccc6)Cl

> <clash_score>
0

> <docking_score>
3.4028234663852886e+38

> <overlap_score>
0.9712585210800171

> <MMFF_internal_energy>
9.87019959538982

> <docked_smiles>
COC1CN(C1)S(=O)(=O)[N@@]2Cc3ccc(cc3[C@@]4(C2)CCN(C4=O)c5cncc6c5cccc6)Cl

$$$$
MAT-POS-69786b79-3_1
  -OEChem-01042202313D

 62 67  0     1  0  0  0  0  0999 V2000
    3.3444    2.6278   20.4409 C   0  0  0  0  0  0  0  0  0  0  0  0
    3.8974    1.9290   21.5048 C   0  0  0  0  0  0  0  0  0  0  0  0
    3.7877    2.4205   19.1658 C   0  0  0  0  0  0  0  0  0  0  0  0
    4.8986    1.0232   21.2985 C   0  0  0  0  0  0  0  0  0  0  0  0
   12.0781    0.0316   24.1532 C   0  0  0  0  0  0  0  0  0  0  0  0
   12.9147   -0.6032   23.2559 C   0  0  0  0  0  0  0  0  0  0  0  0
   11.0005   -1.4332   22.0435 C   0  0  0  0  0  0  0  0  0  0  0  0
    5.3288    1.2339   17.6062 C   0  0  0  0  0  0  0  0  0  0  0  0
    6.8449   -0.2893   18.3747 C   0  0  0  0  0  0  0  0  0  0  0  0
    4.8238    1.4906   18.9051 C   0  0  0  0  0  0  0  0  0  0  0  0
    5.3995    0.7732   19.9944 C   0  0  0  0  0  0  0  0  0  0  0  0
   10.7056   -0.0626   23.9890 C   0  0  0  0  0  0  0  0  0  0  0  0
   10.1421   -0.7766   22.9242 C   0  0  0  0  0  0  0  0  0  0  0  0
    6.4452   -0.1472   19.6975 C   0  0  0  0  0  0  0  0  0  0  0  0
   12.3697   -1.3298   22.2224 C   0  0  0  0  0  0  0  0  0  0  0  0
    8.2504    0.0168   21.4265 C   0  0  0  0  0  0  0  0  0  0  0  0
    6.7850    2.6041   25.0047 C   0  0  0  0  0  0  0  0  0  0  0  0
    9.9496    0.5589   24.9527 C   0  0  0  0  0  0  0  0  0  0  0  0
    3.7785    3.6158   24.9270 C   0  0  0  0  0  0  0  0  0  0  0  0
    3.6281    3.9055   26.3898 C   0  0  0  0  0  0  0  0  0  0  0  0
    8.0155   -2.1541   22.4325 C   0  0  0  0  0  0  0  0  0  0  0  0
    6.9880   -1.9367   21.3575 C   0  0  0  0  0  0  0  0  0  0  0  0
    7.8737   -0.1194   23.8825 C   0  0  0  0  0  0  0  0  0  0  0  0
    8.6253   -0.7606   22.6923 C   0  0  3  0  0  0  0  0  0  0  0  0
    4.9649    4.1271   25.7155 C   0  0  0  0  0  0  0  0  0  0  0  0
    5.3966    5.5484   25.4769 C   0  0  0  0  0  0  0  0  0  0  0  0
    7.8612    1.7144   25.5743 C   0  0  0  0  0  0  0  0  0  0  0  0
    6.3072    0.3768   17.3417 N   0  0  0  0  0  0  0  0  0  0  0  0
    7.2305   -0.6898   20.7785 N   0  0  0  0  0  0  0  0  0  0  0  0
    6.0523    3.2234   26.0062 N   0  0  0  0  0  0  0  0  0  0  0  0
    8.6625    1.0133   24.4989 N   0  3  3  0  0  0  0  0  0  0  0  0
    8.8307    1.0396   21.0789 O   0  0  0  0  0  0  0  0  0  0  0  0
    6.5982    2.7493   23.7996 O   0  0  0  0  0  0  0  0  0  0  0  0
   13.4286   -2.1403   21.1072 Cl  0  0  0  0  0  0  0  0  0  0  0  0
    2.5443    3.3508   20.6368 H   0  0  0  0  0  0  0  0  0  0  0  0
    3.5189    2.1137   22.5166 H   0  0  0  0  0  0  0  0  0  0  0  0
    3.3421    2.9744   18.3363 H   0  0  0  0  0  0  0  0  0  0  0  0
    5.3131    0.4893   22.1569 H   0  0  0  0  0  0  0  0  0  0  0  0
   12.5040    0.5973   24.9741 H   0  0  0  0  0  0  0  0  0  0  0  0
   13.9926   -0.5176   23.3780 H   0  0  0  0  0  0  0  0  0  0  0  0
   10.6057   -2.0168   21.2239 H   0  0  0  0  0  0  0  0  0  0  0  0
    4.9151    1.7511   16.7471 H   0  0  0  0  0  0  0  0  0  0  0  0
    7.6455   -0.9765   18.1038 H   0  0  0  0  0  0  0  0  0  0  0  0
    9.7630   -0.1207   25.8244 H   0  0  0  0  0  0  0  0  0  0  0  0
   10.4585    1.4662   25.3691 H   0  0  0  0  0  0  0  0  0  0  0  0
    3.7741    2.5771   24.6176 H   0  0  0  0  0  0  0  0  0  0  0  0
    3.2914    4.2852   24.2280 H   0  0  0  0  0  0  0  0  0  0  0  0
    3.0401    4.7699   26.6745 H   0  0  0  0  0  0  0  0  0  0  0  0
    3.5229    3.0610   27.0609 H   0  0  0  0  0  0  0  0  0  0  0  0
    7.5159   -2.5477   23.3319 H   0  0  0  0  0  0  0  0  0  0  0  0
    8.7613   -2.9061   22.1409 H   0  0  0  0  0  0  0  0  0  0  0  0
    7.0594   -2.7244   20.5709 H   0  0  0  0  0  0  0  0  0  0  0  0
    5.9531   -1.9957   21.7710 H   0  0  0  0  0  0  0  0  0  0  0  0
    6.8972    0.2930   23.5750 H   0  0  0  0  0  0  0  0  0  0  0  0
    7.6778   -0.8486   24.6901 H   0  0  0  0  0  0  0  0  0  0  0  0
    6.2612    5.8054   26.1008 H   0  0  0  0  0  0  0  0  0  0  0  0
    4.5873    6.2491   25.7154 H   0  0  0  0  0  0  0  0  0  0  0  0
    5.6787    5.7015   24.4282 H   0  0  0  0  0  0  0  0  0  0  0  0
    7.4204    0.9331   26.1997 H   0  0  0  0  0  0  0  0  0  0  0  0
    8.5777    2.3054   26.1514 H   0  0  0  0  0  0  0  0  0  0  0  0
    6.2643    3.0239   26.9796 H   0  0  0  0  0  0  0  0  0  0  0  0
    8.7953    1.7233   23.7550 H   0  0  0  0  0  0  0  0  0  0  0  0
  1  2  2  0  0  0  0
  1  3  1  0  0  0  0
  2  4  1  0  0  0  0
  3 10  2  0  0  0  0
  4 11  2  0  0  0  0
  5  6  2  0  0  0  0
  5 12  1  0  0  0  0
  6 15  1  0  0  0  0
  7 13  1  0  0  0  0
  7 15  2  0  0  0  0
  8 10  1  0  0  0  0
  8 28  2  0  0  0  0
  9 14  2  0  0  0  0
  9 28  1  0  0  0  0
 10 11  1  0  0  0  0
 11 14  1  0  0  0  0
 12 13  2  0  0  0  0
 12 18  1  0  0  0  0
 13 24  1  0  0  0  0
 14 29  1  0  0  0  0
 15 34  1  0  0  0  0
 16 24  1  0  0  0  0
 16 29  1  0  0  0  0
 16 32  2  0  0  0  0
 17 27  1  0  0  0  0
 17 30  1  0  0  0  0
 17 33  2  0  0  0  0
 18 31  1  0  0  0  0
 19 20  1  0  0  0  0
 19 25  1  0  0  0  0
 20 25  1  0  0  0  0
 21 22  1  0  0  0  0
 21 24  1  0  0  0  0
 22 29  1  0  0  0  0
 23 24  1  0  0  0  0
 23 31  1  0  0  0  0
 25 26  1  0  0  0  0
 25 30  1  0  0  0  0
 27 31  1  0  0  0  0
  1 35  1  0  0  0  0
  2 36  1  0  0  0  0
  3 37  1  0  0  0  0
  4 38  1  0  0  0  0
  5 39  1  0  0  0  0
  6 40  1  0  0  0  0
  7 41  1  0  0  0  0
  8 42  1  0  0  0  0
  9 43  1  0  0  0  0
 18 44  1  0  0  0  0
 18 45  1  0  0  0  0
 19 46  1  0  0  0  0
 19 47  1  0  0  0  0
 20 48  1  0  0  0  0
 20 49  1  0  0  0  0
 21 50  1  0  0  0  0
 21 51  1  0  0  0  0
 22 52  1  0  0  0  0
 22 53  1  0  0  0  0
 23 54  1  0  0  0  0
 23 55  1  0  0  0  0
 26 56  1  0  0  0  0
 26 57  1  0  0  0  0
 26 58  1  0  0  0  0
 27 59  1  0  0  0  0
 27 60  1  0  0  0  0
 30 61  1  0  0  0  0
 31 62  1  0  0  0  0
M  CHG  1  31   1
M  END
> <scaffold>
tetrahydroisoquinoline-5spiro-isoquinoline

> <compound>
MAT-POS-69786b79-3

> <compound_smiles>
CC1(CC1)NC(=O)CN2Cc3ccc(cc3C4(C2)CCN(C4=O)c5cncc6c5cccc6)Cl

> <enantiomer_smiles>
CC1(CC1)NC(=O)C[N@]2Cc3ccc(cc3[C@@]4(C2)CCN(C4=O)c5cncc6c5cccc6)Cl

> <clash_score>
0

> <docking_score>
3.4028234663852886e+38

> <overlap_score>
0.9720476269721985

> <MMFF_internal_energy>
172.83681119613593

> <docked_smiles>
CC1(CC1)NC(=O)C[N@H+]2Cc3ccc(cc3[C@@]4(C2)CCN(C4=O)c5cncc6c5cccc6)Cl

$$$$
EDJ-MED-976a33d5-3_1
  -OEChem-01042202313D

 58 63  0     1  0  0  0  0  0999 V2000
    3.3444    2.6278   20.4409 C   0  0  0  0  0  0  0  0  0  0  0  0
    3.8974    1.9290   21.5048 C   0  0  0  0  0  0  0  0  0  0  0  0
    3.7877    2.4205   19.1658 C   0  0  0  0  0  0  0  0  0  0  0  0
    4.8986    1.0232   21.2985 C   0  0  0  0  0  0  0  0  0  0  0  0
   12.0781    0.0316   24.1532 C   0  0  0  0  0  0  0  0  0  0  0  0
   12.9147   -0.6032   23.2559 C   0  0  0  0  0  0  0  0  0  0  0  0
   11.0005   -1.4332   22.0435 C   0  0  0  0  0  0  0  0  0  0  0  0
    5.3288    1.2339   17.6062 C   0  0  0  0  0  0  0  0  0  0  0  0
    6.8449   -0.2893   18.3747 C   0  0  0  0  0  0  0  0  0  0  0  0
    4.8238    1.4906   18.9051 C   0  0  0  0  0  0  0  0  0  0  0  0
    5.3995    0.7732   19.9944 C   0  0  0  0  0  0  0  0  0  0  0  0
   10.1421   -0.7766   22.9242 C   0  0  0  0  0  0  0  0  0  0  0  0
    6.4452   -0.1472   19.6975 C   0  0  0  0  0  0  0  0  0  0  0  0
   10.7056   -0.0626   23.9890 C   0  0  0  0  0  0  0  0  0  0  0  0
   12.3697   -1.3298   22.2224 C   0  0  0  0  0  0  0  0  0  0  0  0
    8.2504    0.0168   21.4265 C   0  0  0  0  0  0  0  0  0  0  0  0
    7.4658    0.9370   26.5989 C   0  0  0  0  0  0  0  0  0  0  0  0
    6.6676    2.6480   24.8610 C   0  0  0  0  0  0  0  0  0  0  0  0
    7.8071    3.2806   25.6048 C   0  0  0  0  0  0  0  0  0  0  0  0
    8.0155   -2.1541   22.4325 C   0  0  0  0  0  0  0  0  0  0  0  0
    6.9880   -1.9367   21.3575 C   0  0  0  0  0  0  0  0  0  0  0  0
    7.8737   -0.1194   23.8825 C   0  0  0  0  0  0  0  0  0  0  0  0
    8.6253   -0.7606   22.6923 C   0  0  3  0  0  0  0  0  0  0  0  0
    7.7607    1.7824   25.4369 C   0  0  0  0  0  0  0  0  0  0  0  0
    8.1137    0.5038   28.9601 C   0  0  0  0  0  0  0  0  0  0  0  0
    6.3072    0.3768   17.3417 N   0  0  0  0  0  0  0  0  0  0  0  0
    7.2305   -0.6898   20.7785 N   0  0  0  0  0  0  0  0  0  0  0  0
    8.6625    1.0133   24.4989 N   0  0  3  0  0  0  0  0  0  0  0  0
    8.2407    1.2156   27.7086 N   0  0  0  0  0  0  0  0  0  0  0  0
    8.8303    1.0395   21.0788 O   0  0  0  0  0  0  0  0  0  0  0  0
    6.5932    0.0805   26.5170 O   0  0  0  0  0  0  0  0  0  0  0  0
    9.7435   -0.4390   26.1487 O   0  0  0  0  0  0  0  0  0  0  0  0
   10.7264    1.8049   25.5145 O   0  0  0  0  0  0  0  0  0  0  0  0
    9.9496    0.5589   24.9527 S   0  0  0  0  0  0  0  0  0  0  0  0
   13.4292   -2.1355   21.1040 Cl  0  0  0  0  0  0  0  0  0  0  0  0
    2.5443    3.3508   20.6368 H   0  0  0  0  0  0  0  0  0  0  0  0
    3.5189    2.1137   22.5166 H   0  0  0  0  0  0  0  0  0  0  0  0
    3.3421    2.9744   18.3363 H   0  0  0  0  0  0  0  0  0  0  0  0
    5.3131    0.4893   22.1569 H   0  0  0  0  0  0  0  0  0  0  0  0
   12.5138    0.5937   24.9766 H   0  0  0  0  0  0  0  0  0  0  0  0
   13.9928   -0.5170   23.3779 H   0  0  0  0  0  0  0  0  0  0  0  0
   10.6109   -2.0125   21.2224 H   0  0  0  0  0  0  0  0  0  0  0  0
    4.9151    1.7511   16.7471 H   0  0  0  0  0  0  0  0  0  0  0  0
    7.6455   -0.9765   18.1038 H   0  0  0  0  0  0  0  0  0  0  0  0
    5.6958    2.6417   25.3402 H   0  0  0  0  0  0  0  0  0  0  0  0
    6.6318    2.7841   23.7867 H   0  0  0  0  0  0  0  0  0  0  0  0
    8.5344    3.8393   25.0279 H   0  0  0  0  0  0  0  0  0  0  0  0
    7.5982    3.6994   26.5819 H   0  0  0  0  0  0  0  0  0  0  0  0
    7.5156   -2.5510   23.3298 H   0  0  0  0  0  0  0  0  0  0  0  0
    8.7654   -2.9030   22.1410 H   0  0  0  0  0  0  0  0  0  0  0  0
    7.0589   -2.7249   20.5717 H   0  0  0  0  0  0  0  0  0  0  0  0
    5.9534   -1.9948   21.7713 H   0  0  0  0  0  0  0  0  0  0  0  0
    6.8827    0.2603   23.5675 H   0  0  0  0  0  0  0  0  0  0  0  0
    7.6501   -0.8650   24.6717 H   0  0  0  0  0  0  0  0  0  0  0  0
    7.3755    1.0116   29.5981 H   0  0  0  0  0  0  0  0  0  0  0  0
    7.7816   -0.5263   28.7638 H   0  0  0  0  0  0  0  0  0  0  0  0
    9.0877    0.4840   29.4709 H   0  0  0  0  0  0  0  0  0  0  0  0
    8.9325    1.9560   27.6416 H   0  0  0  0  0  0  0  0  0  0  0  0
  1  2  2  0  0  0  0
  1  3  1  0  0  0  0
  2  4  1  0  0  0  0
  3 10  2  0  0  0  0
  4 11  2  0  0  0  0
  5  6  2  0  0  0  0
  5 14  1  0  0  0  0
  6 15  1  0  0  0  0
  7 12  1  0  0  0  0
  7 15  2  0  0  0  0
  8 10  1  0  0  0  0
  8 26  2  0  0  0  0
  9 13  2  0  0  0  0
  9 26  1  0  0  0  0
 10 11  1  0  0  0  0
 11 13  1  0  0  0  0
 12 14  2  0  0  0  0
 12 23  1  0  0  0  0
 13 27  1  0  0  0  0
 14 34  1  0  0  0  0
 15 35  1  0  0  0  0
 16 23  1  0  0  0  0
 16 27  1  0  0  0  0
 16 30  2  0  0  0  0
 17 24  1  0  0  0  0
 17 29  1  0  0  0  0
 17 31  2  0  0  0  0
 18 19  1  0  0  0  0
 18 24  1  0  0  0  0
 19 24  1  0  0  0  0
 20 21  1  0  0  0  0
 20 23  1  0  0  0  0
 21 27  1  0  0  0  0
 22 23  1  0  0  0  0
 22 28  1  0  0  0  0
 24 28  1  0  0  0  0
 25 29  1  0  0  0  0
 28 34  1  0  0  0  0
 32 34  2  0  0  0  0
 33 34  2  0  0  0  0
  1 36  1  0  0  0  0
  2 37  1  0  0  0  0
  3 38  1  0  0  0  0
  4 39  1  0  0  0  0
  5 40  1  0  0  0  0
  6 41  1  0  0  0  0
  7 42  1  0  0  0  0
  8 43  1  0  0  0  0
  9 44  1  0  0  0  0
 18 45  1  0  0  0  0
 18 46  1  0  0  0  0
 19 47  1  0  0  0  0
 19 48  1  0  0  0  0
 20 49  1  0  0  0  0
 20 50  1  0  0  0  0
 21 51  1  0  0  0  0
 21 52  1  0  0  0  0
 22 53  1  0  0  0  0
 22 54  1  0  0  0  0
 25 55  1  0  0  0  0
 25 56  1  0  0  0  0
 25 57  1  0  0  0  0
 29 58  1  0  0  0  0
M  END
> <scaffold>
tetralinlike-5spiro-isoquinoline

> <compound>
EDJ-MED-976a33d5-3

> <compound_smiles>
CNC(=O)C1(CC1)N2CC3(CCN(C3=O)c4cncc5c4cccc5)c6cc(ccc6S2(=O)=O)Cl

> <enantiomer_smiles>
CNC(=O)C1(CC1)[N@@]2C[C@@]3(CCN(C3=O)c4cncc5c4cccc5)c6cc(ccc6S2(=O)=O)Cl

> <clash_score>
0.7228221334523692

> <docking_score>
3.4028234663852886e+38

> <overlap_score>
1.0

> <MMFF_internal_energy>
243.03259401033898

> <docked_smiles>
CNC(=O)C1(CC1)[N@@]2C[C@@]3(CCN(C3=O)c4cncc5c4cccc5)c6cc(ccc6S2(=O)=O)Cl

$$$$
EDG-MED-0c930815-1_1
  -OEChem-01042202313D

 56 61  0     1  0  0  0  0  0999 V2000
    6.6114    2.5832   28.4543 C   0  0  0  0  0  0  0  0  0  0  0  0
    3.3444    2.6278   20.4409 C   0  0  0  0  0  0  0  0  0  0  0  0
    3.8974    1.9290   21.5048 C   0  0  0  0  0  0  0  0  0  0  0  0
    3.7877    2.4205   19.1658 C   0  0  0  0  0  0  0  0  0  0  0  0
    4.8986    1.0232   21.2985 C   0  0  0  0  0  0  0  0  0  0  0  0
   12.0781    0.0316   24.1532 C   0  0  0  0  0  0  0  0  0  0  0  0
   12.9147   -0.6032   23.2559 C   0  0  0  0  0  0  0  0  0  0  0  0
   11.0005   -1.4332   22.0435 C   0  0  0  0  0  0  0  0  0  0  0  0
    5.3288    1.2339   17.6062 C   0  0  0  0  0  0  0  0  0  0  0  0
    6.8449   -0.2893   18.3747 C   0  0  0  0  0  0  0  0  0  0  0  0
    4.8238    1.4906   18.9051 C   0  0  0  0  0  0  0  0  0  0  0  0
    5.3995    0.7732   19.9944 C   0  0  0  0  0  0  0  0  0  0  0  0
   10.7056   -0.0626   23.9890 C   0  0  0  0  0  0  0  0  0  0  0  0
   10.1421   -0.7766   22.9242 C   0  0  0  0  0  0  0  0  0  0  0  0
    6.4452   -0.1472   19.6975 C   0  0  0  0  0  0  0  0  0  0  0  0
   12.3697   -1.3298   22.2224 C   0  0  0  0  0  0  0  0  0  0  0  0
    6.9880   -1.9367   21.3575 C   0  0  0  0  0  0  0  0  0  0  0  0
    8.2504    0.0168   21.4265 C   0  0  0  0  0  0  0  0  0  0  0  0
    9.9496    0.5589   24.9527 C   0  0  0  0  0  0  0  0  0  0  0  0
    5.8457    0.1910   28.6707 C   0  0  0  0  0  0  0  0  0  0  0  0
    5.1079    0.7928   27.5114 C   0  0  0  0  0  0  0  0  0  0  0  0
    7.8737   -0.1194   23.8825 C   0  0  0  0  0  0  0  0  0  0  0  0
    6.4986    1.2808   27.8503 C   0  0  0  0  0  0  0  0  0  0  0  0
    8.6253   -0.7606   22.6923 C   0  0  3  0  0  0  0  0  0  0  0  0
    7.6331    0.8946   26.9279 C   0  0  0  0  0  0  0  0  0  0  0  0
    6.7023    3.6325   28.9409 N   0  0  0  0  0  0  0  0  0  0  0  0
    6.3072    0.3768   17.3417 N   0  0  0  0  0  0  0  0  0  0  0  0
    7.2305   -0.6898   20.7785 N   0  0  0  0  0  0  0  0  0  0  0  0
    8.6625    1.0133   24.4989 N   0  0  3  0  0  0  0  0  0  0  0  0
    8.0155   -2.1541   22.4325 N   0  3  0  0  0  0  0  0  0  0  0  0
    8.7840    1.0571   21.0304 O   0  0  0  0  0  0  0  0  0  0  0  0
    6.4489    2.2145   25.0088 O   0  0  0  0  0  0  0  0  0  0  0  0
    8.5948    3.1312   25.9787 O   0  0  0  0  0  0  0  0  0  0  0  0
    7.7714    2.0175   25.5611 S   0  0  0  0  0  0  0  0  0  0  0  0
   13.4283   -2.1417   21.1081 Cl  0  0  0  0  0  0  0  0  0  0  0  0
    2.5442    3.3510   20.6363 H   0  0  0  0  0  0  0  0  0  0  0  0
    3.5187    2.1134   22.5165 H   0  0  0  0  0  0  0  0  0  0  0  0
    3.3428    2.9753   18.3365 H   0  0  0  0  0  0  0  0  0  0  0  0
    5.3156    0.4866   22.1542 H   0  0  0  0  0  0  0  0  0  0  0  0
   12.5034    0.5989   24.9738 H   0  0  0  0  0  0  0  0  0  0  0  0
   13.9924   -0.5174   23.3783 H   0  0  0  0  0  0  0  0  0  0  0  0
   10.6037   -2.0181   21.2241 H   0  0  0  0  0  0  0  0  0  0  0  0
    4.9147    1.7513   16.7472 H   0  0  0  0  0  0  0  0  0  0  0  0
    7.6465   -0.9763   18.1075 H   0  0  0  0  0  0  0  0  0  0  0  0
    6.2926   -2.6135   21.1506 H   0  0  0  0  0  0  0  0  0  0  0  0
    9.7872   -0.1182   25.8310 H   0  0  0  0  0  0  0  0  0  0  0  0
   10.4822    1.4567   25.3595 H   0  0  0  0  0  0  0  0  0  0  0  0
    5.4906    0.4251   29.6679 H   0  0  0  0  0  0  0  0  0  0  0  0
    6.2072   -0.8252   28.5637 H   0  0  0  0  0  0  0  0  0  0  0  0
    4.9743    0.1790   26.6280 H   0  0  0  0  0  0  0  0  0  0  0  0
    4.2585    1.4288   27.7332 H   0  0  0  0  0  0  0  0  0  0  0  0
    6.8947    0.2651   23.5469 H   0  0  0  0  0  0  0  0  0  0  0  0
    7.6667   -0.8719   24.6647 H   0  0  0  0  0  0  0  0  0  0  0  0
    7.4755   -0.1036   26.5103 H   0  0  0  0  0  0  0  0  0  0  0  0
    8.5901    0.9107   27.4565 H   0  0  0  0  0  0  0  0  0  0  0  0
    8.1421   -3.0018   22.7838 H   0  0  0  0  0  0  0  0  0  0  0  0
  1 23  1  0  0  0  0
  1 26  3  0  0  0  0
  2  3  2  0  0  0  0
  2  4  1  0  0  0  0
  3  5  1  0  0  0  0
  4 11  2  0  0  0  0
  5 12  2  0  0  0  0
  6  7  2  0  0  0  0
  6 13  1  0  0  0  0
  7 16  1  0  0  0  0
  8 14  1  0  0  0  0
  8 16  2  0  0  0  0
  9 11  1  0  0  0  0
  9 27  2  0  0  0  0
 10 15  2  0  0  0  0
 10 27  1  0  0  0  0
 11 12  1  0  0  0  0
 12 15  1  0  0  0  0
 13 14  2  0  0  0  0
 13 19  1  0  0  0  0
 14 24  1  0  0  0  0
 15 28  1  0  0  0  0
 16 35  1  0  0  0  0
 17 28  1  0  0  0  0
 17 30  2  0  0  0  0
 18 24  1  0  0  0  0
 18 28  1  0  0  0  0
 18 31  2  0  0  0  0
 19 29  1  0  0  0  0
 20 21  1  0  0  0  0
 20 23  1  0  0  0  0
 21 23  1  0  0  0  0
 22 24  1  0  0  0  0
 22 29  1  0  0  0  0
 23 25  1  0  0  0  0
 24 30  1  0  0  0  0
 25 34  1  0  0  0  0
 29 34  1  0  0  0  0
 32 34  2  0  0  0  0
 33 34  2  0  0  0  0
  2 36  1  0  0  0  0
  3 37  1  0  0  0  0
  4 38  1  0  0  0  0
  5 39  1  0  0  0  0
  6 40  1  0  0  0  0
  7 41  1  0  0  0  0
  8 42  1  0  0  0  0
  9 43  1  0  0  0  0
 10 44  1  0  0  0  0
 17 45  1  0  0  0  0
 19 46  1  0  0  0  0
 19 47  1  0  0  0  0
 20 48  1  0  0  0  0
 20 49  1  0  0  0  0
 21 50  1  0  0  0  0
 21 51  1  0  0  0  0
 22 52  1  0  0  0  0
 22 53  1  0  0  0  0
 25 54  1  0  0  0  0
 25 55  1  0  0  0  0
 30 56  1  0  0  0  0
M  CHG  1  30   1
M  END
> <scaffold>
tetrahydroisoquinoline-5spiro-isoquinoline

> <compound>
EDG-MED-0c930815-1

> <compound_smiles>
c1ccc2c(c1)cncc2N3C=NC4(C3=O)CN(Cc5c4cc(cc5)Cl)S(=O)(=O)CC6(CC6)C#N

> <enantiomer_smiles>
c1ccc2c(c1)cncc2N3C=N[C@@]4(C3=O)C[N@](Cc5c4cc(cc5)Cl)S(=O)(=O)CC6(CC6)C#N

> <clash_score>
0

> <docking_score>
3.4028234663852886e+38

> <overlap_score>
0.9700881242752075

> <MMFF_internal_energy>
201.89547828934738

> <docked_smiles>
c1ccc2c(c1)cncc2N3C=[NH+][C@@]4(C3=O)C[N@](Cc5c4cc(cc5)Cl)S(=O)(=O)CC6(CC6)C#N

$$$$
EDJ-MED-98c0a822-3_1
  -OEChem-01042202313D

 60 65  0     1  0  0  0  0  0999 V2000
    3.3444    2.6278   20.4409 C   0  0  0  0  0  0  0  0  0  0  0  0
    3.8974    1.9290   21.5048 C   0  0  0  0  0  0  0  0  0  0  0  0
    3.7877    2.4205   19.1658 C   0  0  0  0  0  0  0  0  0  0  0  0
    4.8986    1.0232   21.2985 C   0  0  0  0  0  0  0  0  0  0  0  0
   12.0781    0.0316   24.1532 C   0  0  0  0  0  0  0  0  0  0  0  0
   12.9147   -0.6032   23.2559 C   0  0  0  0  0  0  0  0  0  0  0  0
   11.0005   -1.4332   22.0435 C   0  0  0  0  0  0  0  0  0  0  0  0
    5.3288    1.2339   17.6062 C   0  0  0  0  0  0  0  0  0  0  0  0
    6.8449   -0.2893   18.3747 C   0  0  0  0  0  0  0  0  0  0  0  0
    4.8238    1.4906   18.9051 C   0  0  0  0  0  0  0  0  0  0  0  0
    5.3995    0.7732   19.9944 C   0  0  0  0  0  0  0  0  0  0  0  0
   10.7056   -0.0626   23.9890 C   0  0  0  0  0  0  0  0  0  0  0  0
   10.1421   -0.7766   22.9242 C   0  0  0  0  0  0  0  0  0  0  0  0
    6.4452   -0.1472   19.6975 C   0  0  0  0  0  0  0  0  0  0  0  0
   12.3697   -1.3298   22.2224 C   0  0  0  0  0  0  0  0  0  0  0  0
    9.9496    0.5589   24.9527 C   0  0  0  0  0  0  0  0  0  0  0  0
    8.2504    0.0168   21.4265 C   0  0  0  0  0  0  0  0  0  0  0  0
    7.2482    2.1725   26.0607 C   0  0  0  0  0  0  0  0  0  0  0  0
    8.7217    3.5728   23.1899 C   0  0  0  0  0  0  0  0  0  0  0  0
    7.3941    2.8695   23.5223 C   0  0  0  0  0  0  0  0  0  0  0  0
    9.1179    3.4025   24.6670 C   0  0  0  0  0  0  0  0  0  0  0  0
    8.0155   -2.1541   22.4325 C   0  0  0  0  0  0  0  0  0  0  0  0
    6.9880   -1.9367   21.3575 C   0  0  0  0  0  0  0  0  0  0  0  0
    7.8737   -0.1194   23.8825 C   0  0  0  0  0  0  0  0  0  0  0  0
    8.6253   -0.7606   22.6923 C   0  0  3  0  0  0  0  0  0  0  0  0
    8.0878    2.2365   24.7669 C   0  0  0  0  0  0  0  0  0  0  0  0
    7.4107    2.2047   28.5416 C   0  0  0  0  0  0  0  0  0  0  0  0
    6.3072    0.3768   17.3417 N   0  0  0  0  0  0  0  0  0  0  0  0
    7.2305   -0.6898   20.7785 N   0  0  0  0  0  0  0  0  0  0  0  0
    8.6625    1.0133   24.4989 N   0  0  0  0  0  0  0  0  0  0  0  0
    7.9958    2.2447   27.2206 N   0  0  0  0  0  0  0  0  0  0  0  0
   10.3233    0.7301   26.1084 O   0  0  0  0  0  0  0  0  0  0  0  0
    8.8205    1.0412   21.0776 O   0  0  0  0  0  0  0  0  0  0  0  0
    6.0295    2.0681   25.9856 O   0  0  0  0  0  0  0  0  0  0  0  0
   13.4288   -2.1463   21.1122 Cl  0  0  0  0  0  0  0  0  0  0  0  0
    2.5443    3.3508   20.6368 H   0  0  0  0  0  0  0  0  0  0  0  0
    3.5189    2.1137   22.5166 H   0  0  0  0  0  0  0  0  0  0  0  0
    3.3421    2.9744   18.3363 H   0  0  0  0  0  0  0  0  0  0  0  0
    5.3131    0.4893   22.1569 H   0  0  0  0  0  0  0  0  0  0  0  0
   12.5182    0.5963   24.9712 H   0  0  0  0  0  0  0  0  0  0  0  0
   13.9920   -0.5225   23.3816 H   0  0  0  0  0  0  0  0  0  0  0  0
   10.6144   -2.0250   21.2263 H   0  0  0  0  0  0  0  0  0  0  0  0
    4.9151    1.7511   16.7471 H   0  0  0  0  0  0  0  0  0  0  0  0
    7.6455   -0.9765   18.1038 H   0  0  0  0  0  0  0  0  0  0  0  0
    9.3565    3.0107   22.4956 H   0  0  0  0  0  0  0  0  0  0  0  0
    8.6371    4.6038   22.8372 H   0  0  0  0  0  0  0  0  0  0  0  0
    6.5815    3.5633   23.7703 H   0  0  0  0  0  0  0  0  0  0  0  0
    7.0324    2.1750   22.7581 H   0  0  0  0  0  0  0  0  0  0  0  0
   10.1669    3.1441   24.8397 H   0  0  0  0  0  0  0  0  0  0  0  0
    8.8694    4.2707   25.2895 H   0  0  0  0  0  0  0  0  0  0  0  0
    7.5128   -2.5273   23.3388 H   0  0  0  0  0  0  0  0  0  0  0  0
    8.7593   -2.9103   22.1430 H   0  0  0  0  0  0  0  0  0  0  0  0
    7.0600   -2.7253   20.5714 H   0  0  0  0  0  0  0  0  0  0  0  0
    5.9527   -1.9965   21.7708 H   0  0  0  0  0  0  0  0  0  0  0  0
    6.9273    0.3244   23.5645 H   0  0  0  0  0  0  0  0  0  0  0  0
    7.6551   -0.8524   24.6589 H   0  0  0  0  0  0  0  0  0  0  0  0
    7.1741    3.2276   28.8696 H   0  0  0  0  0  0  0  0  0  0  0  0
    6.4886    1.6054   28.5161 H   0  0  0  0  0  0  0  0  0  0  0  0
    8.1241    1.7501   29.2448 H   0  0  0  0  0  0  0  0  0  0  0  0
    9.0046    2.3301   27.1410 H   0  0  0  0  0  0  0  0  0  0  0  0
  1  2  2  0  0  0  0
  1  3  1  0  0  0  0
  2  4  1  0  0  0  0
  3 10  2  0  0  0  0
  4 11  2  0  0  0  0
  5  6  2  0  0  0  0
  5 12  1  0  0  0  0
  6 15  1  0  0  0  0
  7 13  1  0  0  0  0
  7 15  2  0  0  0  0
  8 10  1  0  0  0  0
  8 28  2  0  0  0  0
  9 14  2  0  0  0  0
  9 28  1  0  0  0  0
 10 11  1  0  0  0  0
 11 14  1  0  0  0  0
 12 13  2  0  0  0  0
 12 16  1  0  0  0  0
 13 25  1  0  0  0  0
 14 29  1  0  0  0  0
 15 35  1  0  0  0  0
 16 30  1  0  0  0  0
 16 32  2  0  0  0  0
 17 25  1  0  0  0  0
 17 29  1  0  0  0  0
 17 33  2  0  0  0  0
 18 26  1  0  0  0  0
 18 31  1  0  0  0  0
 18 34  2  0  0  0  0
 19 20  1  0  0  0  0
 19 21  1  0  0  0  0
 20 26  1  0  0  0  0
 21 26  1  0  0  0  0
 22 23  1  0  0  0  0
 22 25  1  0  0  0  0
 23 29  1  0  0  0  0
 24 25  1  0  0  0  0
 24 30  1  0  0  0  0
 26 30  1  0  0  0  0
 27 31  1  0  0  0  0
  1 36  1  0  0  0  0
  2 37  1  0  0  0  0
  3 38  1  0  0  0  0
  4 39  1  0  0  0  0
  5 40  1  0  0  0  0
  6 41  1  0  0  0  0
  7 42  1  0  0  0  0
  8 43  1  0  0  0  0
  9 44  1  0  0  0  0
 19 45  1  0  0  0  0
 19 46  1  0  0  0  0
 20 47  1  0  0  0  0
 20 48  1  0  0  0  0
 21 49  1  0  0  0  0
 21 50  1  0  0  0  0
 22 51  1  0  0  0  0
 22 52  1  0  0  0  0
 23 53  1  0  0  0  0
 23 54  1  0  0  0  0
 24 55  1  0  0  0  0
 24 56  1  0  0  0  0
 27 57  1  0  0  0  0
 27 58  1  0  0  0  0
 27 59  1  0  0  0  0
 31 60  1  0  0  0  0
M  END
> <scaffold>
tetrahydroisoquinoline-5spiro-isoquinoline

> <compound>
EDJ-MED-98c0a822-3

> <compound_smiles>
CNC(=O)C1(CCC1)N2CC3(CCN(C3=O)c4cncc5c4cccc5)c6cc(ccc6C2=O)Cl

> <enantiomer_smiles>
CNC(=O)C1(CCC1)N2C[C@]3(CCN(C3=O)c4cncc5c4cccc5)c6cc(ccc6C2=O)Cl

> <clash_score>
0

> <docking_score>
3.4028234663852886e+38

> <overlap_score>
0.9878955483436584

> <MMFF_internal_energy>
156.25622432654455

> <docked_smiles>
CNC(=O)C1(CCC1)N2C[C@]3(CCN(C3=O)c4cncc5c4cccc5)c6cc(ccc6C2=O)Cl

$$$$
MAT-POS-38eb6498-5_1
  -OEChem-01042202313D

 62 66  0     1  0  0  0  0  0999 V2000
    3.7877    2.4205   19.1658 C   0  0  0  0  0  0  0  0  0  0  0  0
    3.3444    2.6278   20.4409 C   0  0  0  0  0  0  0  0  0  0  0  0
   12.0781    0.0316   24.1532 C   0  0  0  0  0  0  0  0  0  0  0  0
   12.9147   -0.6032   23.2559 C   0  0  0  0  0  0  0  0  0  0  0  0
    4.8986    1.0232   21.2985 C   0  0  0  0  0  0  0  0  0  0  0  0
   11.0005   -1.4332   22.0435 C   0  0  0  0  0  0  0  0  0  0  0  0
    5.3288    1.2339   17.6062 C   0  0  0  0  0  0  0  0  0  0  0  0
    6.8449   -0.2893   18.3747 C   0  0  0  0  0  0  0  0  0  0  0  0
    4.8238    1.4906   18.9051 C   0  0  0  0  0  0  0  0  0  0  0  0
    5.3995    0.7732   19.9944 C   0  0  0  0  0  0  0  0  0  0  0  0
    3.8974    1.9290   21.5048 C   0  0  0  0  0  0  0  0  0  0  0  0
   10.7056   -0.0626   23.9890 C   0  0  0  0  0  0  0  0  0  0  0  0
   10.1421   -0.7766   22.9242 C   0  0  0  0  0  0  0  0  0  0  0  0
    6.4452   -0.1472   19.6975 C   0  0  0  0  0  0  0  0  0  0  0  0
   12.3697   -1.3298   22.2224 C   0  0  0  0  0  0  0  0  0  0  0  0
    8.2504    0.0168   21.4265 C   0  0  0  0  0  0  0  0  0  0  0  0
    3.3939    2.1750   22.8575 C   0  0  0  0  0  0  0  0  0  0  0  0
    8.3042    3.1400   25.7874 C   0  0  0  0  0  0  0  0  0  0  0  0
    9.9496    0.5589   24.9527 C   0  0  0  0  0  0  0  0  0  0  0  0
    8.0155   -2.1541   22.4325 C   0  0  0  0  0  0  0  0  0  0  0  0
    6.9880   -1.9367   21.3575 C   0  0  0  0  0  0  0  0  0  0  0  0
    7.8737   -0.1194   23.8825 C   0  0  0  0  0  0  0  0  0  0  0  0
    8.6253   -0.7606   22.6923 C   0  0  3  0  0  0  0  0  0  0  0  0
    1.4458    2.9221   24.2470 C   0  0  0  0  0  0  0  0  0  0  0  0
    8.4280    4.8789   27.5477 C   0  0  0  0  0  0  0  0  0  0  0  0
    7.8612    1.7144   25.5743 C   0  0  0  0  0  0  0  0  0  0  0  0
    6.3072    0.3768   17.3417 N   0  0  0  0  0  0  0  0  0  0  0  0
    7.2305   -0.6898   20.7785 N   0  0  0  0  0  0  0  0  0  0  0  0
    2.0714    2.6163   22.9806 N   0  0  0  0  0  0  0  0  0  0  0  0
    8.0855    3.5522   27.0934 N   0  0  0  0  0  0  0  0  0  0  0  0
    8.6625    1.0133   24.4989 N   0  3  3  0  0  0  0  0  0  0  0  0
    8.8307    1.0396   21.0789 O   0  0  0  0  0  0  0  0  0  0  0  0
    4.1380    2.0112   23.8405 O   0  0  0  0  0  0  0  0  0  0  0  0
    8.7966    3.8326   24.9008 O   0  0  0  0  0  0  0  0  0  0  0  0
   13.4286   -2.1403   21.1072 Cl  0  0  0  0  0  0  0  0  0  0  0  0
    3.3432    2.9749   18.3363 H   0  0  0  0  0  0  0  0  0  0  0  0
    2.5429    3.3536   20.6248 H   0  0  0  0  0  0  0  0  0  0  0  0
   12.5040    0.5973   24.9741 H   0  0  0  0  0  0  0  0  0  0  0  0
   13.9926   -0.5176   23.3780 H   0  0  0  0  0  0  0  0  0  0  0  0
    5.3206    0.4827   22.1504 H   0  0  0  0  0  0  0  0  0  0  0  0
   10.6057   -2.0168   21.2239 H   0  0  0  0  0  0  0  0  0  0  0  0
    4.9142    1.7507   16.7472 H   0  0  0  0  0  0  0  0  0  0  0  0
    7.6463   -0.9752   18.1039 H   0  0  0  0  0  0  0  0  0  0  0  0
    9.7630   -0.1207   25.8244 H   0  0  0  0  0  0  0  0  0  0  0  0
   10.4585    1.4662   25.3691 H   0  0  0  0  0  0  0  0  0  0  0  0
    7.5159   -2.5477   23.3319 H   0  0  0  0  0  0  0  0  0  0  0  0
    8.7613   -2.9061   22.1409 H   0  0  0  0  0  0  0  0  0  0  0  0
    7.0594   -2.7244   20.5709 H   0  0  0  0  0  0  0  0  0  0  0  0
    5.9531   -1.9957   21.7710 H   0  0  0  0  0  0  0  0  0  0  0  0
    6.8972    0.2930   23.5750 H   0  0  0  0  0  0  0  0  0  0  0  0
    7.6778   -0.8486   24.6901 H   0  0  0  0  0  0  0  0  0  0  0  0
    0.9047    2.0369   24.6125 H   0  0  0  0  0  0  0  0  0  0  0  0
    2.2173    3.2075   24.9774 H   0  0  0  0  0  0  0  0  0  0  0  0
    0.7395    3.7551   24.1154 H   0  0  0  0  0  0  0  0  0  0  0  0
    9.4508    4.8757   27.9524 H   0  0  0  0  0  0  0  0  0  0  0  0
    8.3699    5.5817   26.7036 H   0  0  0  0  0  0  0  0  0  0  0  0
    7.7239    5.1904   28.3333 H   0  0  0  0  0  0  0  0  0  0  0  0
    6.8143    1.6819   25.2598 H   0  0  0  0  0  0  0  0  0  0  0  0
    8.0026    1.1312   26.4884 H   0  0  0  0  0  0  0  0  0  0  0  0
    1.5276    2.7941   22.1424 H   0  0  0  0  0  0  0  0  0  0  0  0
    7.6495    2.9155   27.7543 H   0  0  0  0  0  0  0  0  0  0  0  0
    8.7953    1.7233   23.7550 H   0  0  0  0  0  0  0  0  0  0  0  0
  1  2  2  0  0  0  0
  1  9  1  0  0  0  0
  2 11  1  0  0  0  0
  3  4  2  0  0  0  0
  3 12  1  0  0  0  0
  4 15  1  0  0  0  0
  5 10  1  0  0  0  0
  5 11  2  0  0  0  0
  6 13  1  0  0  0  0
  6 15  2  0  0  0  0
  7  9  2  0  0  0  0
  7 27  1  0  0  0  0
  8 14  1  0  0  0  0
  8 27  2  0  0  0  0
  9 10  1  0  0  0  0
 10 14  2  0  0  0  0
 11 17  1  0  0  0  0
 12 13  2  0  0  0  0
 12 19  1  0  0  0  0
 13 23  1  0  0  0  0
 14 28  1  0  0  0  0
 15 35  1  0  0  0  0
 16 23  1  0  0  0  0
 16 28  1  0  0  0  0
 16 32  2  0  0  0  0
 17 29  1  0  0  0  0
 17 33  2  0  0  0  0
 18 26  1  0  0  0  0
 18 30  1  0  0  0  0
 18 34  2  0  0  0  0
 19 31  1  0  0  0  0
 20 21  1  0  0  0  0
 20 23  1  0  0  0  0
 21 28  1  0  0  0  0
 22 23  1  0  0  0  0
 22 31  1  0  0  0  0
 24 29  1  0  0  0  0
 25 30  1  0  0  0  0
 26 31  1  0  0  0  0
  1 36  1  0  0  0  0
  2 37  1  0  0  0  0
  3 38  1  0  0  0  0
  4 39  1  0  0  0  0
  5 40  1  0  0  0  0
  6 41  1  0  0  0  0
  7 42  1  0  0  0  0
  8 43  1  0  0  0  0
 19 44  1  0  0  0  0
 19 45  1  0  0  0  0
 20 46  1  0  0  0  0
 20 47  1  0  0  0  0
 21 48  1  0  0  0  0
 21 49  1  0  0  0  0
 22 50  1  0  0  0  0
 22 51  1  0  0  0  0
 24 52  1  0  0  0  0
 24 53  1  0  0  0  0
 24 54  1  0  0  0  0
 25 55  1  0  0  0  0
 25 56  1  0  0  0  0
 25 57  1  0  0  0  0
 26 58  1  0  0  0  0
 26 59  1  0  0  0  0
 29 60  1  0  0  0  0
 30 61  1  0  0  0  0
 31 62  1  0  0  0  0
M  CHG  1  31   1
M  END
> <scaffold>
tetrahydroisoquinoline-5spiro-isoquinoline

> <compound>
MAT-POS-38eb6498-5

> <compound_smiles>
CNC(=O)CN1Cc2ccc(cc2C3(C1)CCN(C3=O)c4cncc5c4cc(cc5)C(=O)NC)Cl

> <enantiomer_smiles>
CNC(=O)C[N@]1Cc2ccc(cc2[C@@]3(C1)CCN(C3=O)c4cncc5c4cc(cc5)C(=O)NC)Cl

> <clash_score>
0

> <docking_score>
3.4028234663852886e+38

> <overlap_score>
0.983549177646637

> <MMFF_internal_energy>
137.80239930806403

> <docked_smiles>
CNC(=O)C[N@H+]1Cc2ccc(cc2[C@@]3(C1)CCN(C3=O)c4cncc5c4cc(cc5)C(=O)NC)Cl

$$$$
EDJ-MED-98c0a822-4_1
  -OEChem-01042202313D

 58 63  0     1  0  0  0  0  0999 V2000
    3.3444    2.6278   20.4409 C   0  0  0  0  0  0  0  0  0  0  0  0
    3.8974    1.9290   21.5048 C   0  0  0  0  0  0  0  0  0  0  0  0
    3.7877    2.4205   19.1658 C   0  0  0  0  0  0  0  0  0  0  0  0
    4.8986    1.0232   21.2985 C   0  0  0  0  0  0  0  0  0  0  0  0
   12.0781    0.0316   24.1532 C   0  0  0  0  0  0  0  0  0  0  0  0
   12.9147   -0.6032   23.2559 C   0  0  0  0  0  0  0  0  0  0  0  0
   11.0005   -1.4332   22.0435 C   0  0  0  0  0  0  0  0  0  0  0  0
    5.3288    1.2339   17.6062 C   0  0  0  0  0  0  0  0  0  0  0  0
    6.8449   -0.2893   18.3747 C   0  0  0  0  0  0  0  0  0  0  0  0
    4.8238    1.4906   18.9051 C   0  0  0  0  0  0  0  0  0  0  0  0
    5.3995    0.7732   19.9944 C   0  0  0  0  0  0  0  0  0  0  0  0
   10.7056   -0.0626   23.9890 C   0  0  0  0  0  0  0  0  0  0  0  0
   10.1421   -0.7766   22.9242 C   0  0  0  0  0  0  0  0  0  0  0  0
    6.4452   -0.1472   19.6975 C   0  0  0  0  0  0  0  0  0  0  0  0
   12.3697   -1.3298   22.2224 C   0  0  0  0  0  0  0  0  0  0  0  0
    9.9496    0.5589   24.9527 C   0  0  0  0  0  0  0  0  0  0  0  0
    8.2504    0.0168   21.4265 C   0  0  0  0  0  0  0  0  0  0  0  0
    7.2542    2.1667   26.0541 C   0  0  0  0  0  0  0  0  0  0  0  0
    8.0155   -2.1541   22.4325 C   0  0  0  0  0  0  0  0  0  0  0  0
    6.9880   -1.9367   21.3575 C   0  0  0  0  0  0  0  0  0  0  0  0
    7.8737   -0.1194   23.8825 C   0  0  0  0  0  0  0  0  0  0  0  0
    7.4279    2.8426   23.5202 C   0  0  0  0  0  0  0  0  0  0  0  0
    9.0794    3.3989   24.6195 C   0  0  0  0  0  0  0  0  0  0  0  0
    8.6253   -0.7606   22.6923 C   0  0  3  0  0  0  0  0  0  0  0  0
    8.0937    2.2235   24.7641 C   0  0  0  0  0  0  0  0  0  0  0  0
    7.3100    1.4500   28.4344 C   0  0  0  0  0  0  0  0  0  0  0  0
    6.3072    0.3768   17.3417 N   0  0  0  0  0  0  0  0  0  0  0  0
    7.2305   -0.6898   20.7785 N   0  0  0  0  0  0  0  0  0  0  0  0
    8.6625    1.0133   24.4989 N   0  0  0  0  0  0  0  0  0  0  0  0
    7.9122    1.6001   27.1290 N   0  0  0  0  0  0  0  0  0  0  0  0
   10.3233    0.7301   26.1084 O   0  0  0  0  0  0  0  0  0  0  0  0
    8.8205    1.0412   21.0776 O   0  0  0  0  0  0  0  0  0  0  0  0
    6.1106    2.6068   26.0505 O   0  0  0  0  0  0  0  0  0  0  0  0
    8.5063    3.7896   23.3518 O   0  0  0  0  0  0  0  0  0  0  0  0
   13.4288   -2.1463   21.1122 Cl  0  0  0  0  0  0  0  0  0  0  0  0
    2.5443    3.3508   20.6368 H   0  0  0  0  0  0  0  0  0  0  0  0
    3.5189    2.1137   22.5166 H   0  0  0  0  0  0  0  0  0  0  0  0
    3.3421    2.9744   18.3363 H   0  0  0  0  0  0  0  0  0  0  0  0
    5.3131    0.4893   22.1569 H   0  0  0  0  0  0  0  0  0  0  0  0
   12.5182    0.5963   24.9712 H   0  0  0  0  0  0  0  0  0  0  0  0
   13.9920   -0.5225   23.3816 H   0  0  0  0  0  0  0  0  0  0  0  0
   10.6144   -2.0250   21.2263 H   0  0  0  0  0  0  0  0  0  0  0  0
    4.9151    1.7511   16.7471 H   0  0  0  0  0  0  0  0  0  0  0  0
    7.6455   -0.9765   18.1038 H   0  0  0  0  0  0  0  0  0  0  0  0
    7.5128   -2.5273   23.3388 H   0  0  0  0  0  0  0  0  0  0  0  0
    8.7593   -2.9103   22.1430 H   0  0  0  0  0  0  0  0  0  0  0  0
    7.0600   -2.7253   20.5714 H   0  0  0  0  0  0  0  0  0  0  0  0
    5.9527   -1.9965   21.7708 H   0  0  0  0  0  0  0  0  0  0  0  0
    6.9273    0.3244   23.5645 H   0  0  0  0  0  0  0  0  0  0  0  0
    7.6551   -0.8524   24.6589 H   0  0  0  0  0  0  0  0  0  0  0  0
    7.3262    2.1896   22.6478 H   0  0  0  0  0  0  0  0  0  0  0  0
    6.4766    3.3559   23.6951 H   0  0  0  0  0  0  0  0  0  0  0  0
    8.9787    4.1986   25.3607 H   0  0  0  0  0  0  0  0  0  0  0  0
   10.1372    3.1363   24.5188 H   0  0  0  0  0  0  0  0  0  0  0  0
    7.5156    2.3458   29.0388 H   0  0  0  0  0  0  0  0  0  0  0  0
    6.2229    1.3238   28.3242 H   0  0  0  0  0  0  0  0  0  0  0  0
    7.7331    0.5659   28.9337 H   0  0  0  0  0  0  0  0  0  0  0  0
    8.8645    1.2735   26.9955 H   0  0  0  0  0  0  0  0  0  0  0  0
  1  2  2  0  0  0  0
  1  3  1  0  0  0  0
  2  4  1  0  0  0  0
  3 10  2  0  0  0  0
  4 11  2  0  0  0  0
  5  6  2  0  0  0  0
  5 12  1  0  0  0  0
  6 15  1  0  0  0  0
  7 13  1  0  0  0  0
  7 15  2  0  0  0  0
  8 10  1  0  0  0  0
  8 27  2  0  0  0  0
  9 14  2  0  0  0  0
  9 27  1  0  0  0  0
 10 11  1  0  0  0  0
 11 14  1  0  0  0  0
 12 13  2  0  0  0  0
 12 16  1  0  0  0  0
 13 24  1  0  0  0  0
 14 28  1  0  0  0  0
 15 35  1  0  0  0  0
 16 29  1  0  0  0  0
 16 31  2  0  0  0  0
 17 24  1  0  0  0  0
 17 28  1  0  0  0  0
 17 32  2  0  0  0  0
 18 25  1  0  0  0  0
 18 30  1  0  0  0  0
 18 33  2  0  0  0  0
 19 20  1  0  0  0  0
 19 24  1  0  0  0  0
 20 28  1  0  0  0  0
 21 24  1  0  0  0  0
 21 29  1  0  0  0  0
 22 25  1  0  0  0  0
 22 34  1  0  0  0  0
 23 25  1  0  0  0  0
 23 34  1  0  0  0  0
 25 29  1  0  0  0  0
 26 30  1  0  0  0  0
  1 36  1  0  0  0  0
  2 37  1  0  0  0  0
  3 38  1  0  0  0  0
  4 39  1  0  0  0  0
  5 40  1  0  0  0  0
  6 41  1  0  0  0  0
  7 42  1  0  0  0  0
  8 43  1  0  0  0  0
  9 44  1  0  0  0  0
 19 45  1  0  0  0  0
 19 46  1  0  0  0  0
 20 47  1  0  0  0  0
 20 48  1  0  0  0  0
 21 49  1  0  0  0  0
 21 50  1  0  0  0  0
 22 51  1  0  0  0  0
 22 52  1  0  0  0  0
 23 53  1  0  0  0  0
 23 54  1  0  0  0  0
 26 55  1  0  0  0  0
 26 56  1  0  0  0  0
 26 57  1  0  0  0  0
 30 58  1  0  0  0  0
M  END
> <scaffold>
tetrahydroisoquinoline-5spiro-isoquinoline

> <compound>
EDJ-MED-98c0a822-4

> <compound_smiles>
CNC(=O)C1(COC1)N2CC3(CCN(C3=O)c4cncc5c4cccc5)c6cc(ccc6C2=O)Cl

> <enantiomer_smiles>
CNC(=O)C1(COC1)N2C[C@]3(CCN(C3=O)c4cncc5c4cccc5)c6cc(ccc6C2=O)Cl

> <clash_score>
0

> <docking_score>
3.4028234663852886e+38

> <overlap_score>
0.9880542159080505

> <MMFF_internal_energy>
160.15559333837027

> <docked_smiles>
CNC(=O)C1(COC1)N2C[C@]3(CCN(C3=O)c4cncc5c4cccc5)c6cc(ccc6C2=O)Cl

$$$$
ALP-POS-ecbed2ba-4_1
  -OEChem-01042202313D

 58 63  0     1  0  0  0  0  0999 V2000
    6.5923    2.6670   28.4298 C   0  0  0  0  0  0  0  0  0  0  0  0
    3.3444    2.6278   20.4409 C   0  0  0  0  0  0  0  0  0  0  0  0
    3.8974    1.9290   21.5048 C   0  0  0  0  0  0  0  0  0  0  0  0
    3.7877    2.4205   19.1658 C   0  0  0  0  0  0  0  0  0  0  0  0
    4.8986    1.0232   21.2985 C   0  0  0  0  0  0  0  0  0  0  0  0
   12.0781    0.0316   24.1532 C   0  0  0  0  0  0  0  0  0  0  0  0
   12.9147   -0.6032   23.2559 C   0  0  0  0  0  0  0  0  0  0  0  0
   11.0005   -1.4332   22.0435 C   0  0  0  0  0  0  0  0  0  0  0  0
    5.3288    1.2339   17.6062 C   0  0  0  0  0  0  0  0  0  0  0  0
    6.8449   -0.2893   18.3747 C   0  0  0  0  0  0  0  0  0  0  0  0
    4.8238    1.4906   18.9051 C   0  0  0  0  0  0  0  0  0  0  0  0
    5.3995    0.7732   19.9944 C   0  0  0  0  0  0  0  0  0  0  0  0
   10.7056   -0.0626   23.9890 C   0  0  0  0  0  0  0  0  0  0  0  0
   10.1421   -0.7766   22.9242 C   0  0  0  0  0  0  0  0  0  0  0  0
    6.4452   -0.1472   19.6975 C   0  0  0  0  0  0  0  0  0  0  0  0
   12.3697   -1.3298   22.2224 C   0  0  0  0  0  0  0  0  0  0  0  0
    8.2504    0.0168   21.4265 C   0  0  0  0  0  0  0  0  0  0  0  0
    9.9496    0.5589   24.9527 C   0  0  0  0  0  0  0  0  0  0  0  0
    5.7974    0.2895   28.6968 C   0  0  0  0  0  0  0  0  0  0  0  0
    5.0772    0.8711   27.5163 C   0  0  0  0  0  0  0  0  0  0  0  0
    8.0155   -2.1541   22.4325 C   0  0  0  0  0  0  0  0  0  0  0  0
    6.9880   -1.9367   21.3575 C   0  0  0  0  0  0  0  0  0  0  0  0
    7.8737   -0.1194   23.8825 C   0  0  0  0  0  0  0  0  0  0  0  0
    6.4702    1.3516   27.8565 C   0  0  0  0  0  0  0  0  0  0  0  0
    8.6253   -0.7606   22.6923 C   0  0  3  0  0  0  0  0  0  0  0  0
    7.6088    0.9304   26.9546 C   0  0  0  0  0  0  0  0  0  0  0  0
    6.6907    3.7268   28.8917 N   0  0  0  0  0  0  0  0  0  0  0  0
    6.3072    0.3768   17.3417 N   0  0  0  0  0  0  0  0  0  0  0  0
    7.2305   -0.6898   20.7785 N   0  0  0  0  0  0  0  0  0  0  0  0
    8.6625    1.0133   24.4989 N   0  0  3  0  0  0  0  0  0  0  0  0
    8.8314    1.0394   21.0790 O   0  0  0  0  0  0  0  0  0  0  0  0
    6.4559    2.2241   24.9990 O   0  0  0  0  0  0  0  0  0  0  0  0
    8.6119    3.1278   25.9583 O   0  0  0  0  0  0  0  0  0  0  0  0
    7.7725    2.0180   25.5623 S   0  0  0  0  0  0  0  0  0  0  0  0
   13.4285   -2.1410   21.1076 Cl  0  0  0  0  0  0  0  0  0  0  0  0
    2.5443    3.3508   20.6368 H   0  0  0  0  0  0  0  0  0  0  0  0
    3.5189    2.1137   22.5166 H   0  0  0  0  0  0  0  0  0  0  0  0
    3.3421    2.9744   18.3363 H   0  0  0  0  0  0  0  0  0  0  0  0
    5.3131    0.4893   22.1569 H   0  0  0  0  0  0  0  0  0  0  0  0
   12.5038    0.5986   24.9731 H   0  0  0  0  0  0  0  0  0  0  0  0
   13.9925   -0.5165   23.3773 H   0  0  0  0  0  0  0  0  0  0  0  0
   10.6052   -2.0169   21.2237 H   0  0  0  0  0  0  0  0  0  0  0  0
    4.9151    1.7511   16.7471 H   0  0  0  0  0  0  0  0  0  0  0  0
    7.6455   -0.9765   18.1038 H   0  0  0  0  0  0  0  0  0  0  0  0
    9.7866   -0.1187   25.8304 H   0  0  0  0  0  0  0  0  0  0  0  0
   10.4816    1.4567   25.3600 H   0  0  0  0  0  0  0  0  0  0  0  0
    5.4358    0.5518   29.6847 H   0  0  0  0  0  0  0  0  0  0  0  0
    6.1481   -0.7331   28.6181 H   0  0  0  0  0  0  0  0  0  0  0  0
    4.9448    0.2375   26.6469 H   0  0  0  0  0  0  0  0  0  0  0  0
    4.2331    1.5218   27.7145 H   0  0  0  0  0  0  0  0  0  0  0  0
    7.5167   -2.5459   23.3332 H   0  0  0  0  0  0  0  0  0  0  0  0
    8.7666   -2.9029   22.1426 H   0  0  0  0  0  0  0  0  0  0  0  0
    7.0601   -2.7250   20.5715 H   0  0  0  0  0  0  0  0  0  0  0  0
    5.9530   -1.9963   21.7709 H   0  0  0  0  0  0  0  0  0  0  0  0
    6.8882    0.2643   23.5640 H   0  0  0  0  0  0  0  0  0  0  0  0
    7.6667   -0.8657   24.6729 H   0  0  0  0  0  0  0  0  0  0  0  0
    7.4436   -0.0759   26.5599 H   0  0  0  0  0  0  0  0  0  0  0  0
    8.5609    0.9485   27.4918 H   0  0  0  0  0  0  0  0  0  0  0  0
  1 24  1  0  0  0  0
  1 27  3  0  0  0  0
  2  3  2  0  0  0  0
  2  4  1  0  0  0  0
  3  5  1  0  0  0  0
  4 11  2  0  0  0  0
  5 12  2  0  0  0  0
  6  7  2  0  0  0  0
  6 13  1  0  0  0  0
  7 16  1  0  0  0  0
  8 14  1  0  0  0  0
  8 16  2  0  0  0  0
  9 11  1  0  0  0  0
  9 28  2  0  0  0  0
 10 15  2  0  0  0  0
 10 28  1  0  0  0  0
 11 12  1  0  0  0  0
 12 15  1  0  0  0  0
 13 14  2  0  0  0  0
 13 18  1  0  0  0  0
 14 25  1  0  0  0  0
 15 29  1  0  0  0  0
 16 35  1  0  0  0  0
 17 25  1  0  0  0  0
 17 29  1  0  0  0  0
 17 31  2  0  0  0  0
 18 30  1  0  0  0  0
 19 20  1  0  0  0  0
 19 24  1  0  0  0  0
 20 24  1  0  0  0  0
 21 22  1  0  0  0  0
 21 25  1  0  0  0  0
 22 29  1  0  0  0  0
 23 25  1  0  0  0  0
 23 30  1  0  0  0  0
 24 26  1  0  0  0  0
 26 34  1  0  0  0  0
 30 34  1  0  0  0  0
 32 34  2  0  0  0  0
 33 34  2  0  0  0  0
  2 36  1  0  0  0  0
  3 37  1  0  0  0  0
  4 38  1  0  0  0  0
  5 39  1  0  0  0  0
  6 40  1  0  0  0  0
  7 41  1  0  0  0  0
  8 42  1  0  0  0  0
  9 43  1  0  0  0  0
 10 44  1  0  0  0  0
 18 45  1  0  0  0  0
 18 46  1  0  0  0  0
 19 47  1  0  0  0  0
 19 48  1  0  0  0  0
 20 49  1  0  0  0  0
 20 50  1  0  0  0  0
 21 51  1  0  0  0  0
 21 52  1  0  0  0  0
 22 53  1  0  0  0  0
 22 54  1  0  0  0  0
 23 55  1  0  0  0  0
 23 56  1  0  0  0  0
 26 57  1  0  0  0  0
 26 58  1  0  0  0  0
M  END
> <scaffold>
tetrahydroisoquinoline-5spiro-isoquinoline

> <compound>
ALP-POS-ecbed2ba-4

> <compound_smiles>
c1ccc2c(c1)cncc2N3CCC4(C3=O)CN(Cc5c4cc(cc5)Cl)S(=O)(=O)CC6(CC6)C#N

> <enantiomer_smiles>
c1ccc2c(c1)cncc2N3CC[C@]4(C3=O)C[N@](Cc5c4cc(cc5)Cl)S(=O)(=O)CC6(CC6)C#N

> <clash_score>
0

> <docking_score>
3.4028234663852886e+38

> <overlap_score>
0.9701363444328308

> <MMFF_internal_energy>
115.58179085172836

> <docked_smiles>
c1ccc2c(c1)cncc2N3CC[C@]4(C3=O)C[N@](Cc5c4cc(cc5)Cl)S(=O)(=O)CC6(CC6)C#N

$$$$
ALP-POS-ecbed2ba-21_1
  -OEChem-01042202313D

 62 66  0     1  0  0  0  0  0999 V2000
    3.3444    2.6278   20.4409 C   0  0  0  0  0  0  0  0  0  0  0  0
    3.8974    1.9290   21.5048 C   0  0  0  0  0  0  0  0  0  0  0  0
    3.7877    2.4205   19.1658 C   0  0  0  0  0  0  0  0  0  0  0  0
    4.8986    1.0232   21.2985 C   0  0  0  0  0  0  0  0  0  0  0  0
   12.0781    0.0316   24.1532 C   0  0  0  0  0  0  0  0  0  0  0  0
   12.9147   -0.6032   23.2559 C   0  0  0  0  0  0  0  0  0  0  0  0
   11.0005   -1.4332   22.0435 C   0  0  0  0  0  0  0  0  0  0  0  0
    5.3288    1.2339   17.6062 C   0  0  0  0  0  0  0  0  0  0  0  0
    6.8449   -0.2893   18.3747 C   0  0  0  0  0  0  0  0  0  0  0  0
    4.8238    1.4906   18.9051 C   0  0  0  0  0  0  0  0  0  0  0  0
    5.3995    0.7732   19.9944 C   0  0  0  0  0  0  0  0  0  0  0  0
   10.7056   -0.0626   23.9890 C   0  0  0  0  0  0  0  0  0  0  0  0
   10.1421   -0.7766   22.9242 C   0  0  0  0  0  0  0  0  0  0  0  0
    6.4452   -0.1472   19.6975 C   0  0  0  0  0  0  0  0  0  0  0  0
   12.3697   -1.3298   22.2224 C   0  0  0  0  0  0  0  0  0  0  0  0
    8.2504    0.0168   21.4265 C   0  0  0  0  0  0  0  0  0  0  0  0
    9.9496    0.5589   24.9527 C   0  0  0  0  0  0  0  0  0  0  0  0
    8.0155   -2.1541   22.4325 C   0  0  0  0  0  0  0  0  0  0  0  0
    6.9880   -1.9367   21.3575 C   0  0  0  0  0  0  0  0  0  0  0  0
    7.8737   -0.1194   23.8825 C   0  0  0  0  0  0  0  0  0  0  0  0
    8.6253   -0.7606   22.6923 C   0  0  3  0  0  0  0  0  0  0  0  0
    7.8389    1.2506   27.4793 C   0  0  0  0  0  0  0  0  0  0  0  0
    3.7250    2.6707   28.7241 C   0  0  0  0  0  0  0  0  0  0  0  0
    5.7981    1.1158   26.1059 C   0  0  0  0  0  0  0  0  0  0  0  0
    4.6286    1.8746   26.7060 C   0  0  0  0  0  0  0  0  0  0  0  0
    6.3072    0.3768   17.3417 N   0  0  0  0  0  0  0  0  0  0  0  0
    7.2305   -0.6898   20.7785 N   0  0  0  0  0  0  0  0  0  0  0  0
    8.6625    1.0133   24.4989 N   0  0  3  0  0  0  0  0  0  0  0  0
    7.0596    1.8556   26.3685 N   0  0  3  0  0  0  0  0  0  0  0  0
    8.7514    1.0901   21.1243 O   0  0  0  0  0  0  0  0  0  0  0  0
    7.0151    2.8419   23.9724 O   0  0  0  0  0  0  0  0  0  0  0  0
    9.0058    3.2924   25.4394 O   0  0  0  0  0  0  0  0  0  0  0  0
    4.8012    1.9717   28.1141 O   0  0  0  0  0  0  0  0  0  0  0  0
    7.9493    2.4047   24.9925 S   0  0  0  0  0  0  0  0  0  0  0  0
   13.4297   -2.1462   21.1126 Cl  0  0  0  0  0  0  0  0  0  0  0  0
    2.5443    3.3508   20.6368 H   0  0  0  0  0  0  0  0  0  0  0  0
    3.5189    2.1137   22.5166 H   0  0  0  0  0  0  0  0  0  0  0  0
    3.3421    2.9744   18.3363 H   0  0  0  0  0  0  0  0  0  0  0  0
    5.3131    0.4893   22.1569 H   0  0  0  0  0  0  0  0  0  0  0  0
   12.5046    0.5852   24.9818 H   0  0  0  0  0  0  0  0  0  0  0  0
   13.9930   -0.5302   23.3869 H   0  0  0  0  0  0  0  0  0  0  0  0
   10.6139   -2.0326   21.2341 H   0  0  0  0  0  0  0  0  0  0  0  0
    4.9151    1.7511   16.7471 H   0  0  0  0  0  0  0  0  0  0  0  0
    7.6455   -0.9765   18.1038 H   0  0  0  0  0  0  0  0  0  0  0  0
    9.7590   -0.1307   25.8193 H   0  0  0  0  0  0  0  0  0  0  0  0
   10.4971    1.4368   25.3930 H   0  0  0  0  0  0  0  0  0  0  0  0
    7.5139   -2.5724   23.3172 H   0  0  0  0  0  0  0  0  0  0  0  0
    8.7710   -2.8991   22.1377 H   0  0  0  0  0  0  0  0  0  0  0  0
    7.0576   -2.7256   20.5712 H   0  0  0  0  0  0  0  0  0  0  0  0
    5.9526   -1.9955   21.7714 H   0  0  0  0  0  0  0  0  0  0  0  0
    6.8959    0.2848   23.5662 H   0  0  0  0  0  0  0  0  0  0  0  0
    7.6721   -0.8632   24.6716 H   0  0  0  0  0  0  0  0  0  0  0  0
    8.7612    1.8287   27.6381 H   0  0  0  0  0  0  0  0  0  0  0  0
    7.2359    1.2626   28.3992 H   0  0  0  0  0  0  0  0  0  0  0  0
    8.0966    0.2123   27.2233 H   0  0  0  0  0  0  0  0  0  0  0  0
    3.8904    2.7262   29.8028 H   0  0  0  0  0  0  0  0  0  0  0  0
    2.7866    2.1510   28.5148 H   0  0  0  0  0  0  0  0  0  0  0  0
    3.6790    3.6817   28.3123 H   0  0  0  0  0  0  0  0  0  0  0  0
    5.8891    0.1165   26.5432 H   0  0  0  0  0  0  0  0  0  0  0  0
    5.6762    1.0230   25.0225 H   0  0  0  0  0  0  0  0  0  0  0  0
    3.6952    1.3354   26.5165 H   0  0  0  0  0  0  0  0  0  0  0  0
    4.5481    2.8844   26.2906 H   0  0  0  0  0  0  0  0  0  0  0  0
  1  2  2  0  0  0  0
  1  3  1  0  0  0  0
  2  4  1  0  0  0  0
  3 10  2  0  0  0  0
  4 11  2  0  0  0  0
  5  6  2  0  0  0  0
  5 12  1  0  0  0  0
  6 15  1  0  0  0  0
  7 13  1  0  0  0  0
  7 15  2  0  0  0  0
  8 10  1  0  0  0  0
  8 26  2  0  0  0  0
  9 14  2  0  0  0  0
  9 26  1  0  0  0  0
 10 11  1  0  0  0  0
 11 14  1  0  0  0  0
 12 13  2  0  0  0  0
 12 17  1  0  0  0  0
 13 21  1  0  0  0  0
 14 27  1  0  0  0  0
 15 35  1  0  0  0  0
 16 21  1  0  0  0  0
 16 27  1  0  0  0  0
 16 30  2  0  0  0  0
 17 28  1  0  0  0  0
 18 19  1  0  0  0  0
 18 21  1  0  0  0  0
 19 27  1  0  0  0  0
 20 21  1  0  0  0  0
 20 28  1  0  0  0  0
 22 29  1  0  0  0  0
 23 33  1  0  0  0  0
 24 25  1  0  0  0  0
 24 29  1  0  0  0  0
 25 33  1  0  0  0  0
 28 34  1  0  0  0  0
 29 34  1  0  0  0  0
 31 34  2  0  0  0  0
 32 34  2  0  0  0  0
  1 36  1  0  0  0  0
  2 37  1  0  0  0  0
  3 38  1  0  0  0  0
  4 39  1  0  0  0  0
  5 40  1  0  0  0  0
  6 41  1  0  0  0  0
  7 42  1  0  0  0  0
  8 43  1  0  0  0  0
  9 44  1  0  0  0  0
 17 45  1  0  0  0  0
 17 46  1  0  0  0  0
 18 47  1  0  0  0  0
 18 48  1  0  0  0  0
 19 49  1  0  0  0  0
 19 50  1  0  0  0  0
 20 51  1  0  0  0  0
 20 52  1  0  0  0  0
 22 53  1  0  0  0  0
 22 54  1  0  0  0  0
 22 55  1  0  0  0  0
 23 56  1  0  0  0  0
 23 57  1  0  0  0  0
 23 58  1  0  0  0  0
 24 59  1  0  0  0  0
 24 60  1  0  0  0  0
 25 61  1  0  0  0  0
 25 62  1  0  0  0  0
M  END
> <scaffold>
tetrahydroisoquinoline-5spiro-isoquinoline

> <compound>
ALP-POS-ecbed2ba-21

> <compound_smiles>
CN(CCOC)S(=O)(=O)N1Cc2ccc(cc2C3(C1)CCN(C3=O)c4cncc5c4cccc5)Cl

> <enantiomer_smiles>
C[N@@](CCOC)S(=O)(=O)[N@]1Cc2ccc(cc2[C@@]3(C1)CCN(C3=O)c4cncc5c4cccc5)Cl

> <clash_score>
0

> <docking_score>
3.4028234663852886e+38

> <overlap_score>
0.9724112749099731

> <MMFF_internal_energy>
-0.1856144447561225

> <docked_smiles>
C[N@](CCOC)S(=O)(=O)[N@@]1Cc2ccc(cc2[C@@]3(C1)CCN(C3=O)c4cncc5c4cccc5)Cl

$$$$
EDJ-MED-b6c6ee2b-7_1
  -OEChem-01042202313D

 57 62  0     1  0  0  0  0  0999 V2000
    3.7877    2.4205   19.1658 C   0  0  0  0  0  0  0  0  0  0  0  0
   12.0781    0.0316   24.1532 C   0  0  0  0  0  0  0  0  0  0  0  0
    3.3444    2.6278   20.4409 C   0  0  0  0  0  0  0  0  0  0  0  0
   12.9147   -0.6032   23.2559 C   0  0  0  0  0  0  0  0  0  0  0  0
    4.8986    1.0232   21.2985 C   0  0  0  0  0  0  0  0  0  0  0  0
   11.0005   -1.4332   22.0435 C   0  0  0  0  0  0  0  0  0  0  0  0
    5.3288    1.2339   17.6062 C   0  0  0  0  0  0  0  0  0  0  0  0
    6.8449   -0.2893   18.3747 C   0  0  0  0  0  0  0  0  0  0  0  0
    4.8238    1.4906   18.9051 C   0  0  0  0  0  0  0  0  0  0  0  0
    5.3995    0.7732   19.9944 C   0  0  0  0  0  0  0  0  0  0  0  0
   10.7056   -0.0626   23.9890 C   0  0  0  0  0  0  0  0  0  0  0  0
   10.1421   -0.7766   22.9242 C   0  0  0  0  0  0  0  0  0  0  0  0
    6.4452   -0.1472   19.6975 C   0  0  0  0  0  0  0  0  0  0  0  0
    3.8974    1.9290   21.5048 C   0  0  0  0  0  0  0  0  0  0  0  0
   12.3697   -1.3298   22.2224 C   0  0  0  0  0  0  0  0  0  0  0  0
    9.9496    0.5589   24.9527 C   0  0  0  0  0  0  0  0  0  0  0  0
    8.2504    0.0168   21.4265 C   0  0  0  0  0  0  0  0  0  0  0  0
    7.2743    2.2339   25.9911 C   0  0  0  0  0  0  0  0  0  0  0  0
    7.6484    3.1063   23.6248 C   0  0  0  0  0  0  0  0  0  0  0  0
    8.8572    3.4809   24.4312 C   0  0  0  0  0  0  0  0  0  0  0  0
    8.0155   -2.1541   22.4325 C   0  0  0  0  0  0  0  0  0  0  0  0
    6.9880   -1.9367   21.3575 C   0  0  0  0  0  0  0  0  0  0  0  0
    7.8737   -0.1194   23.8825 C   0  0  0  0  0  0  0  0  0  0  0  0
    8.6253   -0.7606   22.6923 C   0  0  3  0  0  0  0  0  0  0  0  0
    8.0937    2.2235   24.7641 C   0  0  0  0  0  0  0  0  0  0  0  0
    7.3837    1.9520   28.4592 C   0  0  0  0  0  0  0  0  0  0  0  0
    6.3072    0.3768   17.3417 N   0  0  0  0  0  0  0  0  0  0  0  0
    7.2305   -0.6898   20.7785 N   0  0  0  0  0  0  0  0  0  0  0  0
    8.6625    1.0133   24.4989 N   0  0  0  0  0  0  0  0  0  0  0  0
    7.9894    1.9860   27.1473 N   0  0  0  0  0  0  0  0  0  0  0  0
   10.3233    0.7301   26.1084 O   0  0  0  0  0  0  0  0  0  0  0  0
    8.8205    1.0412   21.0776 O   0  0  0  0  0  0  0  0  0  0  0  0
    6.0711    2.4522   25.9123 O   0  0  0  0  0  0  0  0  0  0  0  0
    3.4330    2.1555   22.7513 F   0  0  0  0  0  0  0  0  0  0  0  0
   13.4287   -2.1467   21.1125 Cl  0  0  0  0  0  0  0  0  0  0  0  0
    3.3411    2.9735   18.3363 H   0  0  0  0  0  0  0  0  0  0  0  0
   12.5188    0.5959   24.9712 H   0  0  0  0  0  0  0  0  0  0  0  0
    2.5441    3.3506   20.6360 H   0  0  0  0  0  0  0  0  0  0  0  0
   13.9920   -0.5225   23.3819 H   0  0  0  0  0  0  0  0  0  0  0  0
    5.3117    0.4882   22.1567 H   0  0  0  0  0  0  0  0  0  0  0  0
   10.6143   -2.0253   21.2265 H   0  0  0  0  0  0  0  0  0  0  0  0
    4.9147    1.7515   16.7472 H   0  0  0  0  0  0  0  0  0  0  0  0
    7.6456   -0.9763   18.1039 H   0  0  0  0  0  0  0  0  0  0  0  0
    6.7552    3.7072   23.7499 H   0  0  0  0  0  0  0  0  0  0  0  0
    7.8098    2.7620   22.6100 H   0  0  0  0  0  0  0  0  0  0  0  0
    9.8268    3.3863   23.9564 H   0  0  0  0  0  0  0  0  0  0  0  0
    8.7731    4.3325   25.0962 H   0  0  0  0  0  0  0  0  0  0  0  0
    7.5125   -2.5270   23.3387 H   0  0  0  0  0  0  0  0  0  0  0  0
    8.7589   -2.9107   22.1432 H   0  0  0  0  0  0  0  0  0  0  0  0
    7.0600   -2.7259   20.5720 H   0  0  0  0  0  0  0  0  0  0  0  0
    5.9527   -1.9961   21.7709 H   0  0  0  0  0  0  0  0  0  0  0  0
    6.9276    0.3247   23.5633 H   0  0  0  0  0  0  0  0  0  0  0  0
    7.6527   -0.8545   24.6567 H   0  0  0  0  0  0  0  0  0  0  0  0
    7.4071    2.9593   28.9006 H   0  0  0  0  0  0  0  0  0  0  0  0
    6.3405    1.6140   28.3726 H   0  0  0  0  0  0  0  0  0  0  0  0
    7.9423    1.2567   29.1029 H   0  0  0  0  0  0  0  0  0  0  0  0
    8.9884    1.8197   27.0716 H   0  0  0  0  0  0  0  0  0  0  0  0
  1  3  2  0  0  0  0
  1  9  1  0  0  0  0
  2  4  2  0  0  0  0
  2 11  1  0  0  0  0
  3 14  1  0  0  0  0
  4 15  1  0  0  0  0
  5 10  1  0  0  0  0
  5 14  2  0  0  0  0
  6 12  1  0  0  0  0
  6 15  2  0  0  0  0
  7  9  2  0  0  0  0
  7 27  1  0  0  0  0
  8 13  1  0  0  0  0
  8 27  2  0  0  0  0
  9 10  1  0  0  0  0
 10 13  2  0  0  0  0
 11 12  2  0  0  0  0
 11 16  1  0  0  0  0
 12 24  1  0  0  0  0
 13 28  1  0  0  0  0
 14 34  1  0  0  0  0
 15 35  1  0  0  0  0
 16 29  1  0  0  0  0
 16 31  2  0  0  0  0
 17 24  1  0  0  0  0
 17 28  1  0  0  0  0
 17 32  2  0  0  0  0
 18 25  1  0  0  0  0
 18 30  1  0  0  0  0
 18 33  2  0  0  0  0
 19 20  1  0  0  0  0
 19 25  1  0  0  0  0
 20 25  1  0  0  0  0
 21 22  1  0  0  0  0
 21 24  1  0  0  0  0
 22 28  1  0  0  0  0
 23 24  1  0  0  0  0
 23 29  1  0  0  0  0
 25 29  1  0  0  0  0
 26 30  1  0  0  0  0
  1 36  1  0  0  0  0
  2 37  1  0  0  0  0
  3 38  1  0  0  0  0
  4 39  1  0  0  0  0
  5 40  1  0  0  0  0
  6 41  1  0  0  0  0
  7 42  1  0  0  0  0
  8 43  1  0  0  0  0
 19 44  1  0  0  0  0
 19 45  1  0  0  0  0
 20 46  1  0  0  0  0
 20 47  1  0  0  0  0
 21 48  1  0  0  0  0
 21 49  1  0  0  0  0
 22 50  1  0  0  0  0
 22 51  1  0  0  0  0
 23 52  1  0  0  0  0
 23 53  1  0  0  0  0
 26 54  1  0  0  0  0
 26 55  1  0  0  0  0
 26 56  1  0  0  0  0
 30 57  1  0  0  0  0
M  END
> <scaffold>
tetrahydroisoquinoline-5spiro-isoquinoline

> <compound>
EDJ-MED-b6c6ee2b-7

> <compound_smiles>
CNC(=O)C1(CC1)N2CC3(CCN(C3=O)c4cncc5c4cc(cc5)F)c6cc(ccc6C2=O)Cl

> <enantiomer_smiles>
CNC(=O)C1(CC1)N2C[C@]3(CCN(C3=O)c4cncc5c4cc(cc5)F)c6cc(ccc6C2=O)Cl

> <clash_score>
0

> <docking_score>
3.4028234663852886e+38

> <overlap_score>
1.0

> <MMFF_internal_energy>
139.34035957715952

> <docked_smiles>
CNC(=O)C1(CC1)N2C[C@]3(CCN(C3=O)c4cncc5c4cc(cc5)F)c6cc(ccc6C2=O)Cl

$$$$
EDJ-MED-fd8ed875-6_1
  -OEChem-01042202313D

 55 60  0     1  0  0  0  0  0999 V2000
    3.3444    2.6278   20.4409 C   0  0  0  0  0  0  0  0  0  0  0  0
    3.8974    1.9290   21.5048 C   0  0  0  0  0  0  0  0  0  0  0  0
    3.7877    2.4205   19.1658 C   0  0  0  0  0  0  0  0  0  0  0  0
    4.8986    1.0232   21.2985 C   0  0  0  0  0  0  0  0  0  0  0  0
   12.0781    0.0316   24.1532 C   0  0  0  0  0  0  0  0  0  0  0  0
   12.9147   -0.6032   23.2559 C   0  0  0  0  0  0  0  0  0  0  0  0
   11.0005   -1.4332   22.0435 C   0  0  0  0  0  0  0  0  0  0  0  0
    5.3288    1.2339   17.6062 C   0  0  0  0  0  0  0  0  0  0  0  0
    6.8449   -0.2893   18.3747 C   0  0  0  0  0  0  0  0  0  0  0  0
    4.8238    1.4906   18.9051 C   0  0  0  0  0  0  0  0  0  0  0  0
    5.3995    0.7732   19.9944 C   0  0  0  0  0  0  0  0  0  0  0  0
   10.7056   -0.0626   23.9890 C   0  0  0  0  0  0  0  0  0  0  0  0
   10.1421   -0.7766   22.9242 C   0  0  0  0  0  0  0  0  0  0  0  0
    6.4452   -0.1472   19.6975 C   0  0  0  0  0  0  0  0  0  0  0  0
   12.3697   -1.3298   22.2224 C   0  0  0  0  0  0  0  0  0  0  0  0
    6.9880   -1.9367   21.3575 C   0  0  0  0  0  0  0  0  0  0  0  0
    9.9496    0.5589   24.9527 C   0  0  0  0  0  0  0  0  0  0  0  0
    8.0155   -2.1541   22.4325 C   0  0  0  0  0  0  0  0  0  0  0  0
    8.2504    0.0168   21.4265 C   0  0  0  0  0  0  0  0  0  0  0  0
    7.3116    2.2524   25.9952 C   0  0  0  0  0  0  0  0  0  0  0  0
    7.6728    3.1076   23.6206 C   0  0  0  0  0  0  0  0  0  0  0  0
    8.8940    3.4717   24.4129 C   0  0  0  0  0  0  0  0  0  0  0  0
    7.8737   -0.1194   23.8825 C   0  0  0  0  0  0  0  0  0  0  0  0
    8.6253   -0.7606   22.6923 C   0  0  3  0  0  0  0  0  0  0  0  0
    8.1186    2.2255   24.7602 C   0  0  0  0  0  0  0  0  0  0  0  0
    7.4420    1.9826   28.4636 C   0  0  0  0  0  0  0  0  0  0  0  0
    6.3072    0.3768   17.3417 N   0  0  0  0  0  0  0  0  0  0  0  0
    7.2305   -0.6898   20.7785 N   0  0  0  0  0  0  0  0  0  0  0  0
    8.6625    1.0133   24.4989 N   0  0  0  0  0  0  0  0  0  0  0  0
    8.0350    2.0020   27.1456 N   0  0  0  0  0  0  0  0  0  0  0  0
   10.3218    0.7426   26.1059 O   0  0  0  0  0  0  0  0  0  0  0  0
    8.8074    1.0645   21.1047 O   0  0  0  0  0  0  0  0  0  0  0  0
    6.1104    2.4851   25.9271 O   0  0  0  0  0  0  0  0  0  0  0  0
    8.2510   -3.2611   22.9636 F   0  0  0  0  0  0  0  0  0  0  0  0
   13.4282   -2.1483   21.1129 Cl  0  0  0  0  0  0  0  0  0  0  0  0
    2.5443    3.3508   20.6368 H   0  0  0  0  0  0  0  0  0  0  0  0
    3.5189    2.1137   22.5166 H   0  0  0  0  0  0  0  0  0  0  0  0
    3.3421    2.9744   18.3363 H   0  0  0  0  0  0  0  0  0  0  0  0
    5.3131    0.4893   22.1569 H   0  0  0  0  0  0  0  0  0  0  0  0
   12.5189    0.5916   24.9738 H   0  0  0  0  0  0  0  0  0  0  0  0
   13.9918   -0.5268   23.3848 H   0  0  0  0  0  0  0  0  0  0  0  0
   10.6093   -2.0249   21.2273 H   0  0  0  0  0  0  0  0  0  0  0  0
    4.9151    1.7511   16.7471 H   0  0  0  0  0  0  0  0  0  0  0  0
    7.6455   -0.9765   18.1038 H   0  0  0  0  0  0  0  0  0  0  0  0
    6.2500   -2.5936   21.1076 H   0  0  0  0  0  0  0  0  0  0  0  0
    6.7883    3.7200   23.7511 H   0  0  0  0  0  0  0  0  0  0  0  0
    7.8199    2.7558   22.6061 H   0  0  0  0  0  0  0  0  0  0  0  0
    9.8576    3.3626   23.9291 H   0  0  0  0  0  0  0  0  0  0  0  0
    8.8269    4.3277   25.0740 H   0  0  0  0  0  0  0  0  0  0  0  0
    6.9322    0.3273   23.5568 H   0  0  0  0  0  0  0  0  0  0  0  0
    7.6505   -0.8519   24.6576 H   0  0  0  0  0  0  0  0  0  0  0  0
    7.4821    2.9918   28.8992 H   0  0  0  0  0  0  0  0  0  0  0  0
    6.3940    1.6568   28.3892 H   0  0  0  0  0  0  0  0  0  0  0  0
    7.9985    1.2839   29.1056 H   0  0  0  0  0  0  0  0  0  0  0  0
    9.0311    1.8231   27.0610 H   0  0  0  0  0  0  0  0  0  0  0  0
  1  2  2  0  0  0  0
  1  3  1  0  0  0  0
  2  4  1  0  0  0  0
  3 10  2  0  0  0  0
  4 11  2  0  0  0  0
  5  6  2  0  0  0  0
  5 12  1  0  0  0  0
  6 15  1  0  0  0  0
  7 13  1  0  0  0  0
  7 15  2  0  0  0  0
  8 10  1  0  0  0  0
  8 27  2  0  0  0  0
  9 14  2  0  0  0  0
  9 27  1  0  0  0  0
 10 11  1  0  0  0  0
 11 14  1  0  0  0  0
 12 13  2  0  0  0  0
 12 17  1  0  0  0  0
 13 24  1  0  0  0  0
 14 28  1  0  0  0  0
 15 35  1  0  0  0  0
 16 18  2  0  0  0  0
 16 28  1  0  0  0  0
 17 29  1  0  0  0  0
 17 31  2  0  0  0  0
 18 24  1  0  0  0  0
 18 34  1  0  0  0  0
 19 24  1  0  0  0  0
 19 28  1  0  0  0  0
 19 32  2  0  0  0  0
 20 25  1  0  0  0  0
 20 30  1  0  0  0  0
 20 33  2  0  0  0  0
 21 22  1  0  0  0  0
 21 25  1  0  0  0  0
 22 25  1  0  0  0  0
 23 24  1  0  0  0  0
 23 29  1  0  0  0  0
 25 29  1  0  0  0  0
 26 30  1  0  0  0  0
  1 36  1  0  0  0  0
  2 37  1  0  0  0  0
  3 38  1  0  0  0  0
  4 39  1  0  0  0  0
  5 40  1  0  0  0  0
  6 41  1  0  0  0  0
  7 42  1  0  0  0  0
  8 43  1  0  0  0  0
  9 44  1  0  0  0  0
 16 45  1  0  0  0  0
 21 46  1  0  0  0  0
 21 47  1  0  0  0  0
 22 48  1  0  0  0  0
 22 49  1  0  0  0  0
 23 50  1  0  0  0  0
 23 51  1  0  0  0  0
 26 52  1  0  0  0  0
 26 53  1  0  0  0  0
 26 54  1  0  0  0  0
 30 55  1  0  0  0  0
M  END
> <scaffold>
tetrahydroisoquinoline-5spiro-isoquinoline

> <compound>
EDJ-MED-fd8ed875-6

> <compound_smiles>
CNC(=O)C1(CC1)N2CC3(c4cc(ccc4C2=O)Cl)C(=CN(C3=O)c5cncc6c5cccc6)F

> <enantiomer_smiles>
CNC(=O)C1(CC1)N2C[C@@]3(c4cc(ccc4C2=O)Cl)C(=CN(C3=O)c5cncc6c5cccc6)F

> <clash_score>
0

> <docking_score>
3.4028234663852886e+38

> <overlap_score>
1.0

> <MMFF_internal_energy>
192.20011160414816

> <docked_smiles>
CNC(=O)C1(CC1)N2C[C@@]3(c4cc(ccc4C2=O)Cl)C(=CN(C3=O)c5cncc6c5cccc6)F

$$$$
EDG-MED-00af8776-1_1
  -OEChem-01042202313D

 56 61  0     1  0  0  0  0  0999 V2000
    6.6114    2.5832   28.4543 C   0  0  0  0  0  0  0  0  0  0  0  0
    3.3444    2.6278   20.4409 C   0  0  0  0  0  0  0  0  0  0  0  0
    3.8974    1.9290   21.5048 C   0  0  0  0  0  0  0  0  0  0  0  0
    3.7877    2.4205   19.1658 C   0  0  0  0  0  0  0  0  0  0  0  0
    4.8986    1.0232   21.2985 C   0  0  0  0  0  0  0  0  0  0  0  0
   12.0781    0.0316   24.1532 C   0  0  0  0  0  0  0  0  0  0  0  0
   12.9147   -0.6032   23.2559 C   0  0  0  0  0  0  0  0  0  0  0  0
   11.0005   -1.4332   22.0435 C   0  0  0  0  0  0  0  0  0  0  0  0
    5.3288    1.2339   17.6062 C   0  0  0  0  0  0  0  0  0  0  0  0
    6.8449   -0.2893   18.3747 C   0  0  0  0  0  0  0  0  0  0  0  0
    4.8238    1.4906   18.9051 C   0  0  0  0  0  0  0  0  0  0  0  0
    5.3995    0.7732   19.9944 C   0  0  0  0  0  0  0  0  0  0  0  0
   10.7056   -0.0626   23.9890 C   0  0  0  0  0  0  0  0  0  0  0  0
   10.1421   -0.7766   22.9242 C   0  0  0  0  0  0  0  0  0  0  0  0
    6.4452   -0.1472   19.6975 C   0  0  0  0  0  0  0  0  0  0  0  0
   12.3697   -1.3298   22.2224 C   0  0  0  0  0  0  0  0  0  0  0  0
    6.9880   -1.9367   21.3575 C   0  0  0  0  0  0  0  0  0  0  0  0
    8.2504    0.0168   21.4265 C   0  0  0  0  0  0  0  0  0  0  0  0
    9.9496    0.5589   24.9527 C   0  0  0  0  0  0  0  0  0  0  0  0
    5.8457    0.1910   28.6707 C   0  0  0  0  0  0  0  0  0  0  0  0
    5.1079    0.7928   27.5114 C   0  0  0  0  0  0  0  0  0  0  0  0
    7.8737   -0.1194   23.8825 C   0  0  0  0  0  0  0  0  0  0  0  0
    6.4986    1.2808   27.8503 C   0  0  0  0  0  0  0  0  0  0  0  0
    8.6253   -0.7606   22.6923 C   0  0  3  0  0  0  0  0  0  0  0  0
    7.6331    0.8946   26.9279 C   0  0  0  0  0  0  0  0  0  0  0  0
    6.7023    3.6325   28.9409 N   0  0  0  0  0  0  0  0  0  0  0  0
    6.3072    0.3768   17.3417 N   0  0  0  0  0  0  0  0  0  0  0  0
    7.2305   -0.6898   20.7785 N   0  0  0  0  0  0  0  0  0  0  0  0
    8.6625    1.0133   24.4989 N   0  0  3  0  0  0  0  0  0  0  0  0
    8.0155   -2.1541   22.4325 N   0  3  0  0  0  0  0  0  0  0  0  0
    8.7840    1.0571   21.0304 O   0  0  0  0  0  0  0  0  0  0  0  0
    6.4489    2.2145   25.0088 O   0  0  0  0  0  0  0  0  0  0  0  0
    8.5948    3.1312   25.9787 O   0  0  0  0  0  0  0  0  0  0  0  0
    7.7714    2.0175   25.5611 S   0  0  0  0  0  0  0  0  0  0  0  0
   13.4283   -2.1417   21.1081 Cl  0  0  0  0  0  0  0  0  0  0  0  0
    2.5442    3.3510   20.6363 H   0  0  0  0  0  0  0  0  0  0  0  0
    3.5187    2.1134   22.5165 H   0  0  0  0  0  0  0  0  0  0  0  0
    3.3428    2.9753   18.3365 H   0  0  0  0  0  0  0  0  0  0  0  0
    5.3156    0.4866   22.1542 H   0  0  0  0  0  0  0  0  0  0  0  0
   12.5034    0.5989   24.9738 H   0  0  0  0  0  0  0  0  0  0  0  0
   13.9924   -0.5174   23.3783 H   0  0  0  0  0  0  0  0  0  0  0  0
   10.6037   -2.0181   21.2241 H   0  0  0  0  0  0  0  0  0  0  0  0
    4.9147    1.7513   16.7472 H   0  0  0  0  0  0  0  0  0  0  0  0
    7.6465   -0.9763   18.1075 H   0  0  0  0  0  0  0  0  0  0  0  0
    6.2926   -2.6135   21.1506 H   0  0  0  0  0  0  0  0  0  0  0  0
    9.7872   -0.1182   25.8310 H   0  0  0  0  0  0  0  0  0  0  0  0
   10.4822    1.4567   25.3595 H   0  0  0  0  0  0  0  0  0  0  0  0
    5.4906    0.4251   29.6679 H   0  0  0  0  0  0  0  0  0  0  0  0
    6.2072   -0.8252   28.5637 H   0  0  0  0  0  0  0  0  0  0  0  0
    4.9743    0.1790   26.6280 H   0  0  0  0  0  0  0  0  0  0  0  0
    4.2585    1.4288   27.7332 H   0  0  0  0  0  0  0  0  0  0  0  0
    6.8947    0.2651   23.5469 H   0  0  0  0  0  0  0  0  0  0  0  0
    7.6667   -0.8719   24.6647 H   0  0  0  0  0  0  0  0  0  0  0  0
    7.4755   -0.1036   26.5103 H   0  0  0  0  0  0  0  0  0  0  0  0
    8.5901    0.9107   27.4565 H   0  0  0  0  0  0  0  0  0  0  0  0
    8.1421   -3.0018   22.7838 H   0  0  0  0  0  0  0  0  0  0  0  0
  1 23  1  0  0  0  0
  1 26  3  0  0  0  0
  2  3  2  0  0  0  0
  2  4  1  0  0  0  0
  3  5  1  0  0  0  0
  4 11  2  0  0  0  0
  5 12  2  0  0  0  0
  6  7  2  0  0  0  0
  6 13  1  0  0  0  0
  7 16  1  0  0  0  0
  8 14  1  0  0  0  0
  8 16  2  0  0  0  0
  9 11  1  0  0  0  0
  9 27  2  0  0  0  0
 10 15  2  0  0  0  0
 10 27  1  0  0  0  0
 11 12  1  0  0  0  0
 12 15  1  0  0  0  0
 13 14  2  0  0  0  0
 13 19  1  0  0  0  0
 14 24  1  0  0  0  0
 15 28  1  0  0  0  0
 16 35  1  0  0  0  0
 17 28  1  0  0  0  0
 17 30  2  0  0  0  0
 18 24  1  0  0  0  0
 18 28  1  0  0  0  0
 18 31  2  0  0  0  0
 19 29  1  0  0  0  0
 20 21  1  0  0  0  0
 20 23  1  0  0  0  0
 21 23  1  0  0  0  0
 22 24  1  0  0  0  0
 22 29  1  0  0  0  0
 23 25  1  0  0  0  0
 24 30  1  0  0  0  0
 25 34  1  0  0  0  0
 29 34  1  0  0  0  0
 32 34  2  0  0  0  0
 33 34  2  0  0  0  0
  2 36  1  0  0  0  0
  3 37  1  0  0  0  0
  4 38  1  0  0  0  0
  5 39  1  0  0  0  0
  6 40  1  0  0  0  0
  7 41  1  0  0  0  0
  8 42  1  0  0  0  0
  9 43  1  0  0  0  0
 10 44  1  0  0  0  0
 17 45  1  0  0  0  0
 19 46  1  0  0  0  0
 19 47  1  0  0  0  0
 20 48  1  0  0  0  0
 20 49  1  0  0  0  0
 21 50  1  0  0  0  0
 21 51  1  0  0  0  0
 22 52  1  0  0  0  0
 22 53  1  0  0  0  0
 25 54  1  0  0  0  0
 25 55  1  0  0  0  0
 30 56  1  0  0  0  0
M  CHG  1  30   1
M  END
> <scaffold>
tetrahydroisoquinoline-5spiro-isoquinoline

> <compound>
EDG-MED-00af8776-1

> <compound_smiles>
c1ccc2c(c1)cncc2N3C=NC4(C3=O)CN(Cc5c4cc(cc5)Cl)S(=O)(=O)CC6(CC6)C#N

> <enantiomer_smiles>
c1ccc2c(c1)cncc2N3C=N[C@@]4(C3=O)C[N@](Cc5c4cc(cc5)Cl)S(=O)(=O)CC6(CC6)C#N

> <clash_score>
0

> <docking_score>
3.4028234663852886e+38

> <overlap_score>
0.9700881242752075

> <MMFF_internal_energy>
201.89547828934738

> <docked_smiles>
c1ccc2c(c1)cncc2N3C=[NH+][C@@]4(C3=O)C[N@](Cc5c4cc(cc5)Cl)S(=O)(=O)CC6(CC6)C#N

$$$$
MIK-ENA-5d9157e9-2_1
  -OEChem-01042202313D

 58 63  0     1  0  0  0  0  0999 V2000
    6.5923    2.6670   28.4298 C   0  0  0  0  0  0  0  0  0  0  0  0
    3.3444    2.6278   20.4409 C   0  0  0  0  0  0  0  0  0  0  0  0
    3.8974    1.9290   21.5048 C   0  0  0  0  0  0  0  0  0  0  0  0
    3.7877    2.4205   19.1658 C   0  0  0  0  0  0  0  0  0  0  0  0
    4.8986    1.0232   21.2985 C   0  0  0  0  0  0  0  0  0  0  0  0
   12.0781    0.0316   24.1532 C   0  0  0  0  0  0  0  0  0  0  0  0
   12.9147   -0.6032   23.2559 C   0  0  0  0  0  0  0  0  0  0  0  0
   11.0005   -1.4332   22.0435 C   0  0  0  0  0  0  0  0  0  0  0  0
    5.3288    1.2339   17.6062 C   0  0  0  0  0  0  0  0  0  0  0  0
    6.8449   -0.2893   18.3747 C   0  0  0  0  0  0  0  0  0  0  0  0
    4.8238    1.4906   18.9051 C   0  0  0  0  0  0  0  0  0  0  0  0
    5.3995    0.7732   19.9944 C   0  0  0  0  0  0  0  0  0  0  0  0
   10.7056   -0.0626   23.9890 C   0  0  0  0  0  0  0  0  0  0  0  0
   10.1421   -0.7766   22.9242 C   0  0  0  0  0  0  0  0  0  0  0  0
    6.4452   -0.1472   19.6975 C   0  0  0  0  0  0  0  0  0  0  0  0
   12.3697   -1.3298   22.2224 C   0  0  0  0  0  0  0  0  0  0  0  0
    8.2504    0.0168   21.4265 C   0  0  0  0  0  0  0  0  0  0  0  0
    9.9496    0.5589   24.9527 C   0  0  0  0  0  0  0  0  0  0  0  0
    5.7974    0.2895   28.6968 C   0  0  0  0  0  0  0  0  0  0  0  0
    5.0772    0.8711   27.5163 C   0  0  0  0  0  0  0  0  0  0  0  0
    8.0155   -2.1541   22.4325 C   0  0  0  0  0  0  0  0  0  0  0  0
    6.9880   -1.9367   21.3575 C   0  0  0  0  0  0  0  0  0  0  0  0
    7.8737   -0.1194   23.8825 C   0  0  0  0  0  0  0  0  0  0  0  0
    6.4702    1.3516   27.8565 C   0  0  0  0  0  0  0  0  0  0  0  0
    8.6253   -0.7606   22.6923 C   0  0  2  0  0  0  0  0  0  0  0  0
    7.6088    0.9304   26.9546 C   0  0  0  0  0  0  0  0  0  0  0  0
    6.6907    3.7268   28.8917 N   0  0  0  0  0  0  0  0  0  0  0  0
    6.3072    0.3768   17.3417 N   0  0  0  0  0  0  0  0  0  0  0  0
    7.2305   -0.6898   20.7785 N   0  0  0  0  0  0  0  0  0  0  0  0
    8.6625    1.0133   24.4989 N   0  0  3  0  0  0  0  0  0  0  0  0
    8.8314    1.0394   21.0790 O   0  0  0  0  0  0  0  0  0  0  0  0
    6.4559    2.2241   24.9990 O   0  0  0  0  0  0  0  0  0  0  0  0
    8.6119    3.1278   25.9583 O   0  0  0  0  0  0  0  0  0  0  0  0
    7.7725    2.0180   25.5623 S   0  0  0  0  0  0  0  0  0  0  0  0
   13.4285   -2.1410   21.1076 Cl  0  0  0  0  0  0  0  0  0  0  0  0
    2.5443    3.3508   20.6368 H   0  0  0  0  0  0  0  0  0  0  0  0
    3.5189    2.1137   22.5166 H   0  0  0  0  0  0  0  0  0  0  0  0
    3.3421    2.9744   18.3363 H   0  0  0  0  0  0  0  0  0  0  0  0
    5.3131    0.4893   22.1569 H   0  0  0  0  0  0  0  0  0  0  0  0
   12.5038    0.5986   24.9731 H   0  0  0  0  0  0  0  0  0  0  0  0
   13.9925   -0.5165   23.3773 H   0  0  0  0  0  0  0  0  0  0  0  0
   10.6052   -2.0169   21.2237 H   0  0  0  0  0  0  0  0  0  0  0  0
    4.9151    1.7511   16.7471 H   0  0  0  0  0  0  0  0  0  0  0  0
    7.6455   -0.9765   18.1038 H   0  0  0  0  0  0  0  0  0  0  0  0
    9.7866   -0.1187   25.8304 H   0  0  0  0  0  0  0  0  0  0  0  0
   10.4816    1.4567   25.3600 H   0  0  0  0  0  0  0  0  0  0  0  0
    5.4358    0.5518   29.6847 H   0  0  0  0  0  0  0  0  0  0  0  0
    6.1481   -0.7331   28.6181 H   0  0  0  0  0  0  0  0  0  0  0  0
    4.9448    0.2375   26.6469 H   0  0  0  0  0  0  0  0  0  0  0  0
    4.2331    1.5218   27.7145 H   0  0  0  0  0  0  0  0  0  0  0  0
    7.5167   -2.5459   23.3332 H   0  0  0  0  0  0  0  0  0  0  0  0
    8.7666   -2.9029   22.1426 H   0  0  0  0  0  0  0  0  0  0  0  0
    7.0601   -2.7250   20.5715 H   0  0  0  0  0  0  0  0  0  0  0  0
    5.9530   -1.9963   21.7709 H   0  0  0  0  0  0  0  0  0  0  0  0
    6.8882    0.2643   23.5640 H   0  0  0  0  0  0  0  0  0  0  0  0
    7.6667   -0.8657   24.6729 H   0  0  0  0  0  0  0  0  0  0  0  0
    7.4436   -0.0759   26.5599 H   0  0  0  0  0  0  0  0  0  0  0  0
    8.5609    0.9485   27.4918 H   0  0  0  0  0  0  0  0  0  0  0  0
  1 24  1  0  0  0  0
  1 27  3  0  0  0  0
  2  3  2  0  0  0  0
  2  4  1  0  0  0  0
  3  5  1  0  0  0  0
  4 11  2  0  0  0  0
  5 12  2  0  0  0  0
  6  7  2  0  0  0  0
  6 13  1  0  0  0  0
  7 16  1  0  0  0  0
  8 14  1  0  0  0  0
  8 16  2  0  0  0  0
  9 11  1  0  0  0  0
  9 28  2  0  0  0  0
 10 15  2  0  0  0  0
 10 28  1  0  0  0  0
 11 12  1  0  0  0  0
 12 15  1  0  0  0  0
 13 14  2  0  0  0  0
 13 18  1  0  0  0  0
 14 25  1  1  0  0  0
 15 29  1  0  0  0  0
 16 35  1  0  0  0  0
 17 25  1  6  0  0  0
 17 29  1  0  0  0  0
 17 31  2  0  0  0  0
 18 30  1  0  0  0  0
 19 20  1  0  0  0  0
 19 24  1  0  0  0  0
 20 24  1  0  0  0  0
 21 22  1  0  0  0  0
 21 25  1  6  0  0  0
 22 29  1  0  0  0  0
 23 25  1  1  0  0  0
 23 30  1  0  0  0  0
 24 26  1  0  0  0  0
 26 34  1  0  0  0  0
 30 34  1  0  0  0  0
 32 34  2  0  0  0  0
 33 34  2  0  0  0  0
  2 36  1  0  0  0  0
  3 37  1  0  0  0  0
  4 38  1  0  0  0  0
  5 39  1  0  0  0  0
  6 40  1  0  0  0  0
  7 41  1  0  0  0  0
  8 42  1  0  0  0  0
  9 43  1  0  0  0  0
 10 44  1  0  0  0  0
 18 45  1  0  0  0  0
 18 46  1  0  0  0  0
 19 47  1  0  0  0  0
 19 48  1  0  0  0  0
 20 49  1  0  0  0  0
 20 50  1  0  0  0  0
 21 51  1  0  0  0  0
 21 52  1  0  0  0  0
 22 53  1  0  0  0  0
 22 54  1  0  0  0  0
 23 55  1  0  0  0  0
 23 56  1  0  0  0  0
 26 57  1  0  0  0  0
 26 58  1  0  0  0  0
M  END
> <scaffold>
tetrahydroisoquinoline-5spiro-isoquinoline

> <compound>
MIK-ENA-5d9157e9-2

> <compound_smiles>
c1ccc2c(c1)cncc2N3CC[C@]4(C3=O)CN(Cc5c4cc(cc5)Cl)S(=O)(=O)CC6(CC6)C#N

> <enantiomer_smiles>
c1ccc2c(c1)cncc2N3CC[C@]4(C3=O)C[N@](Cc5c4cc(cc5)Cl)S(=O)(=O)CC6(CC6)C#N

> <clash_score>
0

> <docking_score>
3.4028234663852886e+38

> <overlap_score>
0.9701363444328308

> <MMFF_internal_energy>
115.58179085172836

> <docked_smiles>
c1ccc2c(c1)cncc2N3CC[C@]4(C3=O)C[N@](Cc5c4cc(cc5)Cl)S(=O)(=O)CC6(CC6)C#N

$$$$
MIK-ENA-5d9157e9-1_1
  -OEChem-01042202313D

 58 63  0     1  0  0  0  0  0999 V2000
    8.6658    5.6513   23.6063 C   0  0  0  0  0  0  0  0  0  0  0  0
    3.3444    2.6278   20.4409 C   0  0  0  0  0  0  0  0  0  0  0  0
    3.8974    1.9290   21.5048 C   0  0  0  0  0  0  0  0  0  0  0  0
    3.7877    2.4205   19.1658 C   0  0  0  0  0  0  0  0  0  0  0  0
    4.8986    1.0232   21.2985 C   0  0  0  0  0  0  0  0  0  0  0  0
   12.0781    0.0316   24.1532 C   0  0  0  0  0  0  0  0  0  0  0  0
   12.9147   -0.6032   23.2559 C   0  0  0  0  0  0  0  0  0  0  0  0
   11.0005   -1.4332   22.0435 C   0  0  0  0  0  0  0  0  0  0  0  0
    5.3288    1.2339   17.6062 C   0  0  0  0  0  0  0  0  0  0  0  0
    6.8449   -0.2893   18.3747 C   0  0  0  0  0  0  0  0  0  0  0  0
    4.8238    1.4906   18.9051 C   0  0  0  0  0  0  0  0  0  0  0  0
    5.3995    0.7732   19.9944 C   0  0  0  0  0  0  0  0  0  0  0  0
   10.7056   -0.0626   23.9890 C   0  0  0  0  0  0  0  0  0  0  0  0
   10.1421   -0.7766   22.9242 C   0  0  0  0  0  0  0  0  0  0  0  0
    6.4452   -0.1472   19.6975 C   0  0  0  0  0  0  0  0  0  0  0  0
   12.3697   -1.3298   22.2224 C   0  0  0  0  0  0  0  0  0  0  0  0
    8.2504    0.0168   21.4265 C   0  0  0  0  0  0  0  0  0  0  0  0
    9.9496    0.5589   24.9527 C   0  0  0  0  0  0  0  0  0  0  0  0
    7.0423    5.7352   25.5333 C   0  0  0  0  0  0  0  0  0  0  0  0
    6.3445    5.0581   24.3908 C   0  0  0  0  0  0  0  0  0  0  0  0
    8.0155   -2.1541   22.4325 C   0  0  0  0  0  0  0  0  0  0  0  0
    6.9880   -1.9367   21.3575 C   0  0  0  0  0  0  0  0  0  0  0  0
    7.8737   -0.1194   23.8825 C   0  0  0  0  0  0  0  0  0  0  0  0
    7.8437    4.9249   24.5392 C   0  0  0  0  0  0  0  0  0  0  0  0
    8.6253   -0.7606   22.6923 C   0  0  1  0  0  0  0  0  0  0  0  0
    8.3989    3.5924   24.9901 C   0  0  0  0  0  0  0  0  0  0  0  0
    9.3281    6.2366   22.8548 N   0  0  0  0  0  0  0  0  0  0  0  0
    6.3072    0.3768   17.3417 N   0  0  0  0  0  0  0  0  0  0  0  0
    7.2305   -0.6898   20.7785 N   0  0  0  0  0  0  0  0  0  0  0  0
    8.6625    1.0133   24.4989 N   0  0  3  0  0  0  0  0  0  0  0  0
    8.7590    1.0938   21.1339 O   0  0  0  0  0  0  0  0  0  0  0  0
    7.4185    2.5202   22.8183 O   0  0  0  0  0  0  0  0  0  0  0  0
    9.9256    2.7344   23.0508 O   0  0  0  0  0  0  0  0  0  0  0  0
    8.6205    2.4836   23.6226 S   0  0  0  0  0  0  0  0  0  0  0  0
   13.4282   -2.1430   21.1088 Cl  0  0  0  0  0  0  0  0  0  0  0  0
    2.5443    3.3508   20.6368 H   0  0  0  0  0  0  0  0  0  0  0  0
    3.5189    2.1137   22.5166 H   0  0  0  0  0  0  0  0  0  0  0  0
    3.3421    2.9744   18.3363 H   0  0  0  0  0  0  0  0  0  0  0  0
    5.3131    0.4893   22.1569 H   0  0  0  0  0  0  0  0  0  0  0  0
   12.5037    0.5936   24.9766 H   0  0  0  0  0  0  0  0  0  0  0  0
   13.9925   -0.5222   23.3811 H   0  0  0  0  0  0  0  0  0  0  0  0
   10.6052   -2.0226   21.2278 H   0  0  0  0  0  0  0  0  0  0  0  0
    4.9151    1.7511   16.7471 H   0  0  0  0  0  0  0  0  0  0  0  0
    7.6455   -0.9765   18.1038 H   0  0  0  0  0  0  0  0  0  0  0  0
    9.7611   -0.1282   25.8170 H   0  0  0  0  0  0  0  0  0  0  0  0
   10.4950    1.4394   25.3807 H   0  0  0  0  0  0  0  0  0  0  0  0
    7.1131    6.8168   25.5083 H   0  0  0  0  0  0  0  0  0  0  0  0
    6.8883    5.3310   26.5271 H   0  0  0  0  0  0  0  0  0  0  0  0
    5.7222    4.2006   24.6197 H   0  0  0  0  0  0  0  0  0  0  0  0
    5.9477    5.6870   23.6019 H   0  0  0  0  0  0  0  0  0  0  0  0
    7.5816   -2.6066   23.3357 H   0  0  0  0  0  0  0  0  0  0  0  0
    8.7766   -2.8606   22.0650 H   0  0  0  0  0  0  0  0  0  0  0  0
    7.0239   -2.7507   20.5948 H   0  0  0  0  0  0  0  0  0  0  0  0
    5.9570   -1.9477   21.7832 H   0  0  0  0  0  0  0  0  0  0  0  0
    6.8900    0.2772   23.5669 H   0  0  0  0  0  0  0  0  0  0  0  0
    7.6602   -0.8709   24.6633 H   0  0  0  0  0  0  0  0  0  0  0  0
    7.7201    3.1037   25.6945 H   0  0  0  0  0  0  0  0  0  0  0  0
    9.3752    3.7161   25.4665 H   0  0  0  0  0  0  0  0  0  0  0  0
  1 24  1  0  0  0  0
  1 27  3  0  0  0  0
  2  3  2  0  0  0  0
  2  4  1  0  0  0  0
  3  5  1  0  0  0  0
  4 11  2  0  0  0  0
  5 12  2  0  0  0  0
  6  7  2  0  0  0  0
  6 13  1  0  0  0  0
  7 16  1  0  0  0  0
  8 14  1  0  0  0  0
  8 16  2  0  0  0  0
  9 11  1  0  0  0  0
  9 28  2  0  0  0  0
 10 15  2  0  0  0  0
 10 28  1  0  0  0  0
 11 12  1  0  0  0  0
 12 15  1  0  0  0  0
 13 14  2  0  0  0  0
 13 18  1  0  0  0  0
 14 25  1  6  0  0  0
 15 29  1  0  0  0  0
 16 35  1  0  0  0  0
 17 25  1  1  0  0  0
 17 29  1  0  0  0  0
 17 31  2  0  0  0  0
 18 30  1  0  0  0  0
 19 20  1  0  0  0  0
 19 24  1  0  0  0  0
 20 24  1  0  0  0  0
 21 22  1  0  0  0  0
 21 25  1  1  0  0  0
 22 29  1  0  0  0  0
 23 25  1  6  0  0  0
 23 30  1  0  0  0  0
 24 26  1  0  0  0  0
 26 34  1  0  0  0  0
 30 34  1  0  0  0  0
 32 34  2  0  0  0  0
 33 34  2  0  0  0  0
  2 36  1  0  0  0  0
  3 37  1  0  0  0  0
  4 38  1  0  0  0  0
  5 39  1  0  0  0  0
  6 40  1  0  0  0  0
  7 41  1  0  0  0  0
  8 42  1  0  0  0  0
  9 43  1  0  0  0  0
 10 44  1  0  0  0  0
 18 45  1  0  0  0  0
 18 46  1  0  0  0  0
 19 47  1  0  0  0  0
 19 48  1  0  0  0  0
 20 49  1  0  0  0  0
 20 50  1  0  0  0  0
 21 51  1  0  0  0  0
 21 52  1  0  0  0  0
 22 53  1  0  0  0  0
 22 54  1  0  0  0  0
 23 55  1  0  0  0  0
 23 56  1  0  0  0  0
 26 57  1  0  0  0  0
 26 58  1  0  0  0  0
M  END
> <scaffold>
tetrahydroisoquinoline-5spiro-isoquinoline

> <compound>
MIK-ENA-5d9157e9-1

> <compound_smiles>
c1ccc2c(c1)cncc2N3CC[C@@]4(C3=O)CN(Cc5c4cc(cc5)Cl)S(=O)(=O)CC6(CC6)C#N

> <enantiomer_smiles>
c1ccc2c(c1)cncc2N3CC[C@@]4(C3=O)C[N@@](Cc5c4cc(cc5)Cl)S(=O)(=O)CC6(CC6)C#N

> <clash_score>
0

> <docking_score>
3.4028234663852886e+38

> <overlap_score>
0.9736237525939941

> <MMFF_internal_energy>
124.97709335998255

> <docked_smiles>
c1ccc2c(c1)cncc2N3CC[C@@]4(C3=O)C[N@@](Cc5c4cc(cc5)Cl)S(=O)(=O)CC6(CC6)C#N

$$$$
ALP-POS-ecbed2ba-6_1
  -OEChem-01042202313D

 61 66  0     1  0  0  0  0  0999 V2000
    3.3444    2.6278   20.4409 C   0  0  0  0  0  0  0  0  0  0  0  0
    3.8974    1.9290   21.5048 C   0  0  0  0  0  0  0  0  0  0  0  0
    3.7877    2.4205   19.1658 C   0  0  0  0  0  0  0  0  0  0  0  0
    4.8986    1.0232   21.2985 C   0  0  0  0  0  0  0  0  0  0  0  0
   12.0781    0.0316   24.1532 C   0  0  0  0  0  0  0  0  0  0  0  0
   12.9147   -0.6032   23.2559 C   0  0  0  0  0  0  0  0  0  0  0  0
   11.0005   -1.4332   22.0435 C   0  0  0  0  0  0  0  0  0  0  0  0
    5.3288    1.2339   17.6062 C   0  0  0  0  0  0  0  0  0  0  0  0
    6.8449   -0.2893   18.3747 C   0  0  0  0  0  0  0  0  0  0  0  0
    4.8238    1.4906   18.9051 C   0  0  0  0  0  0  0  0  0  0  0  0
    5.3995    0.7732   19.9944 C   0  0  0  0  0  0  0  0  0  0  0  0
   10.7056   -0.0626   23.9890 C   0  0  0  0  0  0  0  0  0  0  0  0
   10.1421   -0.7766   22.9242 C   0  0  0  0  0  0  0  0  0  0  0  0
    6.4452   -0.1472   19.6975 C   0  0  0  0  0  0  0  0  0  0  0  0
   12.3697   -1.3298   22.2224 C   0  0  0  0  0  0  0  0  0  0  0  0
    8.2504    0.0168   21.4265 C   0  0  0  0  0  0  0  0  0  0  0  0
    9.9496    0.5589   24.9527 C   0  0  0  0  0  0  0  0  0  0  0  0
    6.9477    1.0432   29.4808 C   0  0  0  0  0  0  0  0  0  0  0  0
    7.5627    2.3715   29.1372 C   0  0  0  0  0  0  0  0  0  0  0  0
    8.0155   -2.1541   22.4325 C   0  0  0  0  0  0  0  0  0  0  0  0
    6.9880   -1.9367   21.3575 C   0  0  0  0  0  0  0  0  0  0  0  0
    7.8737   -0.1194   23.8825 C   0  0  0  0  0  0  0  0  0  0  0  0
    8.6253   -0.7606   22.6923 C   0  0  3  0  0  0  0  0  0  0  0  0
    6.8379    1.5828   28.0804 C   0  0  0  0  0  0  0  0  0  0  0  0
    4.5680    1.0542   27.7790 C   0  0  0  0  0  0  0  0  0  0  0  0
    7.6088    0.9304   26.9546 C   0  0  0  0  0  0  0  0  0  0  0  0
    6.3072    0.3768   17.3417 N   0  0  0  0  0  0  0  0  0  0  0  0
    7.2305   -0.6898   20.7785 N   0  0  0  0  0  0  0  0  0  0  0  0
    8.6625    1.0133   24.4989 N   0  0  3  0  0  0  0  0  0  0  0  0
    8.8314    1.0394   21.0790 O   0  0  0  0  0  0  0  0  0  0  0  0
    6.4559    2.2241   24.9990 O   0  0  0  0  0  0  0  0  0  0  0  0
    8.6119    3.1278   25.9583 O   0  0  0  0  0  0  0  0  0  0  0  0
    5.5439    2.0759   27.6956 O   0  0  0  0  0  0  0  0  0  0  0  0
    7.7725    2.0180   25.5623 S   0  0  0  0  0  0  0  0  0  0  0  0
   13.4285   -2.1410   21.1076 Cl  0  0  0  0  0  0  0  0  0  0  0  0
    2.5443    3.3508   20.6368 H   0  0  0  0  0  0  0  0  0  0  0  0
    3.5189    2.1137   22.5166 H   0  0  0  0  0  0  0  0  0  0  0  0
    3.3421    2.9744   18.3363 H   0  0  0  0  0  0  0  0  0  0  0  0
    5.3131    0.4893   22.1569 H   0  0  0  0  0  0  0  0  0  0  0  0
   12.5038    0.5986   24.9731 H   0  0  0  0  0  0  0  0  0  0  0  0
   13.9925   -0.5165   23.3773 H   0  0  0  0  0  0  0  0  0  0  0  0
   10.6052   -2.0169   21.2237 H   0  0  0  0  0  0  0  0  0  0  0  0
    4.9151    1.7511   16.7471 H   0  0  0  0  0  0  0  0  0  0  0  0
    7.6455   -0.9765   18.1038 H   0  0  0  0  0  0  0  0  0  0  0  0
    9.7866   -0.1187   25.8304 H   0  0  0  0  0  0  0  0  0  0  0  0
   10.4816    1.4567   25.3600 H   0  0  0  0  0  0  0  0  0  0  0  0
    7.6181    0.2123   29.6648 H   0  0  0  0  0  0  0  0  0  0  0  0
    6.0602    1.0451   30.1019 H   0  0  0  0  0  0  0  0  0  0  0  0
    7.0870    3.2628   29.5287 H   0  0  0  0  0  0  0  0  0  0  0  0
    8.6436    2.4274   29.0913 H   0  0  0  0  0  0  0  0  0  0  0  0
    7.5167   -2.5459   23.3332 H   0  0  0  0  0  0  0  0  0  0  0  0
    8.7666   -2.9029   22.1426 H   0  0  0  0  0  0  0  0  0  0  0  0
    7.0601   -2.7250   20.5715 H   0  0  0  0  0  0  0  0  0  0  0  0
    5.9530   -1.9963   21.7709 H   0  0  0  0  0  0  0  0  0  0  0  0
    6.8882    0.2643   23.5640 H   0  0  0  0  0  0  0  0  0  0  0  0
    7.6667   -0.8657   24.6729 H   0  0  0  0  0  0  0  0  0  0  0  0
    3.5951    1.4535   27.4821 H   0  0  0  0  0  0  0  0  0  0  0  0
    4.5215    0.6763   28.8035 H   0  0  0  0  0  0  0  0  0  0  0  0
    4.8465    0.2407   27.1050 H   0  0  0  0  0  0  0  0  0  0  0  0
    7.0989    0.0296   26.6018 H   0  0  0  0  0  0  0  0  0  0  0  0
    8.6192    0.6630   27.2756 H   0  0  0  0  0  0  0  0  0  0  0  0
  1  2  2  0  0  0  0
  1  3  1  0  0  0  0
  2  4  1  0  0  0  0
  3 10  2  0  0  0  0
  4 11  2  0  0  0  0
  5  6  2  0  0  0  0
  5 12  1  0  0  0  0
  6 15  1  0  0  0  0
  7 13  1  0  0  0  0
  7 15  2  0  0  0  0
  8 10  1  0  0  0  0
  8 27  2  0  0  0  0
  9 14  2  0  0  0  0
  9 27  1  0  0  0  0
 10 11  1  0  0  0  0
 11 14  1  0  0  0  0
 12 13  2  0  0  0  0
 12 17  1  0  0  0  0
 13 23  1  0  0  0  0
 14 28  1  0  0  0  0
 15 35  1  0  0  0  0
 16 23  1  0  0  0  0
 16 28  1  0  0  0  0
 16 30  2  0  0  0  0
 17 29  1  0  0  0  0
 18 19  1  0  0  0  0
 18 24  1  0  0  0  0
 19 24  1  0  0  0  0
 20 21  1  0  0  0  0
 20 23  1  0  0  0  0
 21 28  1  0  0  0  0
 22 23  1  0  0  0  0
 22 29  1  0  0  0  0
 24 26  1  0  0  0  0
 24 33  1  0  0  0  0
 25 33  1  0  0  0  0
 26 34  1  0  0  0  0
 29 34  1  0  0  0  0
 31 34  2  0  0  0  0
 32 34  2  0  0  0  0
  1 36  1  0  0  0  0
  2 37  1  0  0  0  0
  3 38  1  0  0  0  0
  4 39  1  0  0  0  0
  5 40  1  0  0  0  0
  6 41  1  0  0  0  0
  7 42  1  0  0  0  0
  8 43  1  0  0  0  0
  9 44  1  0  0  0  0
 17 45  1  0  0  0  0
 17 46  1  0  0  0  0
 18 47  1  0  0  0  0
 18 48  1  0  0  0  0
 19 49  1  0  0  0  0
 19 50  1  0  0  0  0
 20 51  1  0  0  0  0
 20 52  1  0  0  0  0
 21 53  1  0  0  0  0
 21 54  1  0  0  0  0
 22 55  1  0  0  0  0
 22 56  1  0  0  0  0
 25 57  1  0  0  0  0
 25 58  1  0  0  0  0
 25 59  1  0  0  0  0
 26 60  1  0  0  0  0
 26 61  1  0  0  0  0
M  END
> <scaffold>
tetrahydroisoquinoline-5spiro-isoquinoline

> <compound>
ALP-POS-ecbed2ba-6

> <compound_smiles>
COC1(CC1)CS(=O)(=O)N2Cc3ccc(cc3C4(C2)CCN(C4=O)c5cncc6c5cccc6)Cl

> <enantiomer_smiles>
COC1(CC1)CS(=O)(=O)[N@]2Cc3ccc(cc3[C@@]4(C2)CCN(C4=O)c5cncc6c5cccc6)Cl

> <clash_score>
0

> <docking_score>
3.4028234663852886e+38

> <overlap_score>
0.9701846241950989

> <MMFF_internal_energy>
129.22925658542243

> <docked_smiles>
COC1(CC1)CS(=O)(=O)[N@]2Cc3ccc(cc3[C@@]4(C2)CCN(C4=O)c5cncc6c5cccc6)Cl

$$$$
MAT-POS-1bed62cf-1_1
  -OEChem-01042202313D

 57 62  0     1  0  0  0  0  0999 V2000
    9.4923    5.5219   23.8241 C   0  0  0  0  0  0  0  0  0  0  0  0
    3.3444    2.6278   20.4409 C   0  0  0  0  0  0  0  0  0  0  0  0
    3.8974    1.9290   21.5048 C   0  0  0  0  0  0  0  0  0  0  0  0
    3.7877    2.4205   19.1658 C   0  0  0  0  0  0  0  0  0  0  0  0
    4.8986    1.0232   21.2985 C   0  0  0  0  0  0  0  0  0  0  0  0
   12.0781    0.0316   24.1532 C   0  0  0  0  0  0  0  0  0  0  0  0
   12.9147   -0.6032   23.2559 C   0  0  0  0  0  0  0  0  0  0  0  0
   11.0005   -1.4332   22.0435 C   0  0  0  0  0  0  0  0  0  0  0  0
    5.3288    1.2339   17.6062 C   0  0  0  0  0  0  0  0  0  0  0  0
    6.8449   -0.2893   18.3747 C   0  0  0  0  0  0  0  0  0  0  0  0
    4.8238    1.4906   18.9051 C   0  0  0  0  0  0  0  0  0  0  0  0
    5.3995    0.7732   19.9944 C   0  0  0  0  0  0  0  0  0  0  0  0
   10.7056   -0.0626   23.9890 C   0  0  0  0  0  0  0  0  0  0  0  0
   10.1421   -0.7766   22.9242 C   0  0  0  0  0  0  0  0  0  0  0  0
    6.4452   -0.1472   19.6975 C   0  0  0  0  0  0  0  0  0  0  0  0
   12.3697   -1.3298   22.2224 C   0  0  0  0  0  0  0  0  0  0  0  0
    6.9880   -1.9367   21.3575 C   0  0  0  0  0  0  0  0  0  0  0  0
    8.2504    0.0168   21.4265 C   0  0  0  0  0  0  0  0  0  0  0  0
    9.9496    0.5589   24.9527 C   0  0  0  0  0  0  0  0  0  0  0  0
    8.0155   -2.1541   22.4325 C   0  0  0  0  0  0  0  0  0  0  0  0
    7.5647    6.0232   25.3696 C   0  0  0  0  0  0  0  0  0  0  0  0
    6.9832    5.5675   24.0639 C   0  0  0  0  0  0  0  0  0  0  0  0
    7.8737   -0.1194   23.8825 C   0  0  0  0  0  0  0  0  0  0  0  0
    8.3255    5.0355   24.5138 C   0  0  0  0  0  0  0  0  0  0  0  0
    8.6253   -0.7606   22.6923 C   0  0  3  0  0  0  0  0  0  0  0  0
    8.4018    3.5992   24.9813 C   0  0  0  0  0  0  0  0  0  0  0  0
   10.4325    5.9138   23.2685 N   0  0  0  0  0  0  0  0  0  0  0  0
    6.3072    0.3768   17.3417 N   0  0  0  0  0  0  0  0  0  0  0  0
    7.2305   -0.6898   20.7785 N   0  0  0  0  0  0  0  0  0  0  0  0
    8.6625    1.0133   24.4989 N   0  0  3  0  0  0  0  0  0  0  0  0
    6.1222   -2.7602   21.1043 O   0  0  0  0  0  0  0  0  0  0  0  0
    8.7910    1.0611   21.1020 O   0  0  0  0  0  0  0  0  0  0  0  0
    7.4262    2.5285   22.8067 O   0  0  0  0  0  0  0  0  0  0  0  0
    9.9336    2.7175   23.0568 O   0  0  0  0  0  0  0  0  0  0  0  0
    8.6218    2.4827   23.6200 S   0  0  0  0  0  0  0  0  0  0  0  0
   13.4285   -2.1416   21.1080 Cl  0  0  0  0  0  0  0  0  0  0  0  0
    2.5443    3.3508   20.6368 H   0  0  0  0  0  0  0  0  0  0  0  0
    3.5189    2.1137   22.5166 H   0  0  0  0  0  0  0  0  0  0  0  0
    3.3421    2.9744   18.3363 H   0  0  0  0  0  0  0  0  0  0  0  0
    5.3131    0.4893   22.1569 H   0  0  0  0  0  0  0  0  0  0  0  0
   12.5036    0.5928   24.9773 H   0  0  0  0  0  0  0  0  0  0  0  0
   13.9927   -0.5225   23.3814 H   0  0  0  0  0  0  0  0  0  0  0  0
   10.6045   -2.0211   21.2270 H   0  0  0  0  0  0  0  0  0  0  0  0
    4.9151    1.7511   16.7471 H   0  0  0  0  0  0  0  0  0  0  0  0
    7.6455   -0.9765   18.1038 H   0  0  0  0  0  0  0  0  0  0  0  0
    9.7608   -0.1291   25.8168 H   0  0  0  0  0  0  0  0  0  0  0  0
   10.4951    1.4388   25.3829 H   0  0  0  0  0  0  0  0  0  0  0  0
    7.5419   -2.5808   23.3241 H   0  0  0  0  0  0  0  0  0  0  0  0
    8.7461   -2.8785   22.0508 H   0  0  0  0  0  0  0  0  0  0  0  0
    7.9182    7.0462   25.4320 H   0  0  0  0  0  0  0  0  0  0  0  0
    7.0965    5.6673   26.2801 H   0  0  0  0  0  0  0  0  0  0  0  0
    6.1246    4.9068   24.0999 H   0  0  0  0  0  0  0  0  0  0  0  0
    6.9470    6.2861   23.2531 H   0  0  0  0  0  0  0  0  0  0  0  0
    6.8898    0.2774   23.5690 H   0  0  0  0  0  0  0  0  0  0  0  0
    7.6642   -0.8749   24.6614 H   0  0  0  0  0  0  0  0  0  0  0  0
    7.4817    3.3051   25.4939 H   0  0  0  0  0  0  0  0  0  0  0  0
    9.2474    3.4524   25.6587 H   0  0  0  0  0  0  0  0  0  0  0  0
  1 24  1  0  0  0  0
  1 27  3  0  0  0  0
  2  3  2  0  0  0  0
  2  4  1  0  0  0  0
  3  5  1  0  0  0  0
  4 11  2  0  0  0  0
  5 12  2  0  0  0  0
  6  7  2  0  0  0  0
  6 13  1  0  0  0  0
  7 16  1  0  0  0  0
  8 14  1  0  0  0  0
  8 16  2  0  0  0  0
  9 11  1  0  0  0  0
  9 28  2  0  0  0  0
 10 15  2  0  0  0  0
 10 28  1  0  0  0  0
 11 12  1  0  0  0  0
 12 15  1  0  0  0  0
 13 14  2  0  0  0  0
 13 19  1  0  0  0  0
 14 25  1  0  0  0  0
 15 29  1  0  0  0  0
 16 36  1  0  0  0  0
 17 20  1  0  0  0  0
 17 29  1  0  0  0  0
 17 31  2  0  0  0  0
 18 25  1  0  0  0  0
 18 29  1  0  0  0  0
 18 32  2  0  0  0  0
 19 30  1  0  0  0  0
 20 25  1  0  0  0  0
 21 22  1  0  0  0  0
 21 24  1  0  0  0  0
 22 24  1  0  0  0  0
 23 25  1  0  0  0  0
 23 30  1  0  0  0  0
 24 26  1  0  0  0  0
 26 35  1  0  0  0  0
 30 35  1  0  0  0  0
 33 35  2  0  0  0  0
 34 35  2  0  0  0  0
  2 37  1  0  0  0  0
  3 38  1  0  0  0  0
  4 39  1  0  0  0  0
  5 40  1  0  0  0  0
  6 41  1  0  0  0  0
  7 42  1  0  0  0  0
  8 43  1  0  0  0  0
  9 44  1  0  0  0  0
 10 45  1  0  0  0  0
 19 46  1  0  0  0  0
 19 47  1  0  0  0  0
 20 48  1  0  0  0  0
 20 49  1  0  0  0  0
 21 50  1  0  0  0  0
 21 51  1  0  0  0  0
 22 52  1  0  0  0  0
 22 53  1  0  0  0  0
 23 54  1  0  0  0  0
 23 55  1  0  0  0  0
 26 56  1  0  0  0  0
 26 57  1  0  0  0  0
M  END
> <scaffold>
tetrahydroisoquinoline-5spiro-isoquinoline

> <compound>
MAT-POS-1bed62cf-1

> <compound_smiles>
c1ccc2c(c1)cncc2N3C(=O)CC4(C3=O)CN(Cc5c4cc(cc5)Cl)S(=O)(=O)CC6(CC6)C#N

> <enantiomer_smiles>
c1ccc2c(c1)cncc2N3C(=O)C[C@@]4(C3=O)C[N@@](Cc5c4cc(cc5)Cl)S(=O)(=O)CC6(CC6)C#N

> <clash_score>
0

> <docking_score>
3.4028234663852886e+38

> <overlap_score>
1.0

> <MMFF_internal_energy>
86.79743789591134

> <docked_smiles>
c1ccc2c(c1)cncc2N3C(=O)C[C@@]4(C3=O)C[N@@](Cc5c4cc(cc5)Cl)S(=O)(=O)CC6(CC6)C#N

$$$$
VLA-UNK-61877630-6_1
  -OEChem-01042202313D

 56 60  0     1  0  0  0  0  0999 V2000
    3.3444    2.6278   20.4409 C   0  0  0  0  0  0  0  0  0  0  0  0
    3.8974    1.9290   21.5048 C   0  0  0  0  0  0  0  0  0  0  0  0
    3.7877    2.4205   19.1658 C   0  0  0  0  0  0  0  0  0  0  0  0
    4.8986    1.0232   21.2985 C   0  0  0  0  0  0  0  0  0  0  0  0
   12.0781    0.0316   24.1532 C   0  0  0  0  0  0  0  0  0  0  0  0
   12.9147   -0.6032   23.2559 C   0  0  0  0  0  0  0  0  0  0  0  0
   11.0005   -1.4332   22.0435 C   0  0  0  0  0  0  0  0  0  0  0  0
    5.3288    1.2339   17.6062 C   0  0  0  0  0  0  0  0  0  0  0  0
    6.8449   -0.2893   18.3747 C   0  0  0  0  0  0  0  0  0  0  0  0
    4.8238    1.4906   18.9051 C   0  0  0  0  0  0  0  0  0  0  0  0
    5.3995    0.7732   19.9944 C   0  0  0  0  0  0  0  0  0  0  0  0
   10.7056   -0.0626   23.9890 C   0  0  0  0  0  0  0  0  0  0  0  0
   10.1421   -0.7766   22.9242 C   0  0  0  0  0  0  0  0  0  0  0  0
    6.4452   -0.1472   19.6975 C   0  0  0  0  0  0  0  0  0  0  0  0
   12.3697   -1.3298   22.2224 C   0  0  0  0  0  0  0  0  0  0  0  0
    9.9496    0.5589   24.9527 C   0  0  0  0  0  0  0  0  0  0  0  0
    8.2504    0.0168   21.4265 C   0  0  0  0  0  0  0  0  0  0  0  0
    8.5113    3.1709   23.5916 C   0  0  0  0  0  0  0  0  0  0  0  0
    8.0155   -2.1541   22.4325 C   0  0  0  0  0  0  0  0  0  0  0  0
    6.9880   -1.9367   21.3575 C   0  0  0  0  0  0  0  0  0  0  0  0
    7.8737   -0.1194   23.8825 C   0  0  1  0  0  0  0  0  0  0  0  0
    8.6253   -0.7606   22.6923 C   0  0  2  0  0  0  0  0  0  0  0  0
    7.4723    4.5642   21.8046 C   0  0  0  0  0  0  0  0  0  0  0  0
    8.1223    2.2485   24.7185 C   0  0  0  0  0  0  0  0  0  0  0  0
    7.4927   -1.1044   25.0083 C   0  0  0  0  0  0  0  0  0  0  0  0
    6.3072    0.3768   17.3417 N   0  0  0  0  0  0  0  0  0  0  0  0
    7.2305   -0.6898   20.7785 N   0  0  0  0  0  0  0  0  0  0  0  0
    8.6625    1.0133   24.4989 N   0  0  0  0  0  0  0  0  0  0  0  0
    7.3945    3.6561   22.9262 N   0  0  0  0  0  0  0  0  0  0  0  0
   10.3327    0.7437   26.1029 O   0  0  0  0  0  0  0  0  0  0  0  0
    8.8213    1.0440   21.0746 O   0  0  0  0  0  0  0  0  0  0  0  0
    9.6758    3.4470   23.3156 O   0  0  0  0  0  0  0  0  0  0  0  0
    7.2900   -0.4024   26.1383 F   0  0  0  0  0  0  0  0  0  0  0  0
    8.5240   -1.9424   25.2188 F   0  0  0  0  0  0  0  0  0  0  0  0
   13.4289   -2.1347   21.1037 Cl  0  0  0  0  0  0  0  0  0  0  0  0
    2.5443    3.3508   20.6368 H   0  0  0  0  0  0  0  0  0  0  0  0
    3.5189    2.1137   22.5166 H   0  0  0  0  0  0  0  0  0  0  0  0
    3.3421    2.9744   18.3363 H   0  0  0  0  0  0  0  0  0  0  0  0
    5.3131    0.4893   22.1569 H   0  0  0  0  0  0  0  0  0  0  0  0
   12.5191    0.5966   24.9702 H   0  0  0  0  0  0  0  0  0  0  0  0
   13.9920   -0.5098   23.3726 H   0  0  0  0  0  0  0  0  0  0  0  0
   10.6104   -2.0130   21.2192 H   0  0  0  0  0  0  0  0  0  0  0  0
    4.9151    1.7511   16.7471 H   0  0  0  0  0  0  0  0  0  0  0  0
    7.6455   -0.9765   18.1038 H   0  0  0  0  0  0  0  0  0  0  0  0
    7.5144   -2.5392   23.3364 H   0  0  0  0  0  0  0  0  0  0  0  0
    8.7589   -2.9111   22.1428 H   0  0  0  0  0  0  0  0  0  0  0  0
    7.0564   -2.7255   20.5705 H   0  0  0  0  0  0  0  0  0  0  0  0
    5.9526   -1.9959   21.7725 H   0  0  0  0  0  0  0  0  0  0  0  0
    6.9283    0.3252   23.5299 H   0  0  0  0  0  0  0  0  0  0  0  0
    7.4550    5.6016   22.1702 H   0  0  0  0  0  0  0  0  0  0  0  0
    8.4068    4.3857   21.2526 H   0  0  0  0  0  0  0  0  0  0  0  0
    6.6143    4.3965   21.1370 H   0  0  0  0  0  0  0  0  0  0  0  0
    8.4939    2.6482   25.6667 H   0  0  0  0  0  0  0  0  0  0  0  0
    7.0331    2.1589   24.7653 H   0  0  0  0  0  0  0  0  0  0  0  0
    6.6026   -1.6575   24.7405 H   0  0  0  0  0  0  0  0  0  0  0  0
    6.4765    3.3582   23.2433 H   0  0  0  0  0  0  0  0  0  0  0  0
  1  2  2  0  0  0  0
  1  3  1  0  0  0  0
  2  4  1  0  0  0  0
  3 10  2  0  0  0  0
  4 11  2  0  0  0  0
  5  6  2  0  0  0  0
  5 12  1  0  0  0  0
  6 15  1  0  0  0  0
  7 13  1  0  0  0  0
  7 15  2  0  0  0  0
  8 10  1  0  0  0  0
  8 26  2  0  0  0  0
  9 14  2  0  0  0  0
  9 26  1  0  0  0  0
 10 11  1  0  0  0  0
 11 14  1  0  0  0  0
 12 13  2  0  0  0  0
 12 16  1  0  0  0  0
 13 22  1  6  0  0  0
 14 27  1  0  0  0  0
 15 35  1  0  0  0  0
 16 28  1  0  0  0  0
 16 30  2  0  0  0  0
 17 22  1  6  0  0  0
 17 27  1  0  0  0  0
 17 31  2  0  0  0  0
 18 24  1  0  0  0  0
 18 29  1  0  0  0  0
 18 32  2  0  0  0  0
 19 20  1  0  0  0  0
 19 22  1  1  0  0  0
 20 27  1  0  0  0  0
 21 22  1  1  0  0  0
 21 25  1  1  0  0  0
 21 28  1  0  0  0  0
 23 29  1  0  0  0  0
 24 28  1  0  0  0  0
 25 33  1  0  0  0  0
 25 34  1  0  0  0  0
  1 36  1  0  0  0  0
  2 37  1  0  0  0  0
  3 38  1  0  0  0  0
  4 39  1  0  0  0  0
  5 40  1  0  0  0  0
  6 41  1  0  0  0  0
  7 42  1  0  0  0  0
  8 43  1  0  0  0  0
  9 44  1  0  0  0  0
 19 45  1  0  0  0  0
 19 46  1  0  0  0  0
 20 47  1  0  0  0  0
 20 48  1  0  0  0  0
 21 49  1  0  0  0  0
 23 50  1  0  0  0  0
 23 51  1  0  0  0  0
 23 52  1  0  0  0  0
 24 53  1  0  0  0  0
 24 54  1  0  0  0  0
 25 55  1  0  0  0  0
 29 56  1  0  0  0  0
M  END
> <scaffold>
tetrahydroisoquinoline-5spiro-isoquinoline

> <compound>
VLA-UNK-61877630-6

> <compound_smiles>
CNC(=O)CN1C([C@@]2(CCN(C2=O)c3cncc4c3cccc4)c5cc(ccc5C1=O)Cl)C(F)F

> <enantiomer_smiles>
CNC(=O)CN1[C@@H]([C@@]2(CCN(C2=O)c3cncc4c3cccc4)c5cc(ccc5C1=O)Cl)C(F)F

> <clash_score>
0

> <docking_score>
3.4028234663852886e+38

> <overlap_score>
1.0

> <MMFF_internal_energy>
191.57692408190402

> <docked_smiles>
CNC(=O)CN1[C@@H]([C@@]2(CCN(C2=O)c3cncc4c3cccc4)c5cc(ccc5C1=O)Cl)C(F)F

$$$$
EDG-MED-b6bce001-1_1
  -OEChem-01042202313D

 56 61  0     1  0  0  0  0  0999 V2000
    6.6114    2.5832   28.4543 C   0  0  0  0  0  0  0  0  0  0  0  0
    3.3444    2.6278   20.4409 C   0  0  0  0  0  0  0  0  0  0  0  0
    3.8974    1.9290   21.5048 C   0  0  0  0  0  0  0  0  0  0  0  0
    3.7877    2.4205   19.1658 C   0  0  0  0  0  0  0  0  0  0  0  0
    4.8986    1.0232   21.2985 C   0  0  0  0  0  0  0  0  0  0  0  0
   12.0781    0.0316   24.1532 C   0  0  0  0  0  0  0  0  0  0  0  0
   12.9147   -0.6032   23.2559 C   0  0  0  0  0  0  0  0  0  0  0  0
   11.0005   -1.4332   22.0435 C   0  0  0  0  0  0  0  0  0  0  0  0
    5.3288    1.2339   17.6062 C   0  0  0  0  0  0  0  0  0  0  0  0
    6.8449   -0.2893   18.3747 C   0  0  0  0  0  0  0  0  0  0  0  0
    4.8238    1.4906   18.9051 C   0  0  0  0  0  0  0  0  0  0  0  0
    5.3995    0.7732   19.9944 C   0  0  0  0  0  0  0  0  0  0  0  0
   10.7056   -0.0626   23.9890 C   0  0  0  0  0  0  0  0  0  0  0  0
   10.1421   -0.7766   22.9242 C   0  0  0  0  0  0  0  0  0  0  0  0
    6.4452   -0.1472   19.6975 C   0  0  0  0  0  0  0  0  0  0  0  0
   12.3697   -1.3298   22.2224 C   0  0  0  0  0  0  0  0  0  0  0  0
    6.9880   -1.9367   21.3575 C   0  0  0  0  0  0  0  0  0  0  0  0
    8.2504    0.0168   21.4265 C   0  0  0  0  0  0  0  0  0  0  0  0
    9.9496    0.5589   24.9527 C   0  0  0  0  0  0  0  0  0  0  0  0
    5.8457    0.1910   28.6707 C   0  0  0  0  0  0  0  0  0  0  0  0
    5.1079    0.7928   27.5114 C   0  0  0  0  0  0  0  0  0  0  0  0
    7.8737   -0.1194   23.8825 C   0  0  0  0  0  0  0  0  0  0  0  0
    6.4986    1.2808   27.8503 C   0  0  0  0  0  0  0  0  0  0  0  0
    8.6253   -0.7606   22.6923 C   0  0  3  0  0  0  0  0  0  0  0  0
    7.6331    0.8946   26.9279 C   0  0  0  0  0  0  0  0  0  0  0  0
    6.7023    3.6325   28.9409 N   0  0  0  0  0  0  0  0  0  0  0  0
    6.3072    0.3768   17.3417 N   0  0  0  0  0  0  0  0  0  0  0  0
    7.2305   -0.6898   20.7785 N   0  0  0  0  0  0  0  0  0  0  0  0
    8.6625    1.0133   24.4989 N   0  0  3  0  0  0  0  0  0  0  0  0
    8.0155   -2.1541   22.4325 N   0  3  0  0  0  0  0  0  0  0  0  0
    8.7840    1.0571   21.0304 O   0  0  0  0  0  0  0  0  0  0  0  0
    6.4489    2.2145   25.0088 O   0  0  0  0  0  0  0  0  0  0  0  0
    8.5948    3.1312   25.9787 O   0  0  0  0  0  0  0  0  0  0  0  0
    7.7714    2.0175   25.5611 S   0  0  0  0  0  0  0  0  0  0  0  0
   13.4283   -2.1417   21.1081 Cl  0  0  0  0  0  0  0  0  0  0  0  0
    2.5442    3.3510   20.6363 H   0  0  0  0  0  0  0  0  0  0  0  0
    3.5187    2.1134   22.5165 H   0  0  0  0  0  0  0  0  0  0  0  0
    3.3428    2.9753   18.3365 H   0  0  0  0  0  0  0  0  0  0  0  0
    5.3156    0.4866   22.1542 H   0  0  0  0  0  0  0  0  0  0  0  0
   12.5034    0.5989   24.9738 H   0  0  0  0  0  0  0  0  0  0  0  0
   13.9924   -0.5174   23.3783 H   0  0  0  0  0  0  0  0  0  0  0  0
   10.6037   -2.0181   21.2241 H   0  0  0  0  0  0  0  0  0  0  0  0
    4.9147    1.7513   16.7472 H   0  0  0  0  0  0  0  0  0  0  0  0
    7.6465   -0.9763   18.1075 H   0  0  0  0  0  0  0  0  0  0  0  0
    6.2926   -2.6135   21.1506 H   0  0  0  0  0  0  0  0  0  0  0  0
    9.7872   -0.1182   25.8310 H   0  0  0  0  0  0  0  0  0  0  0  0
   10.4822    1.4567   25.3595 H   0  0  0  0  0  0  0  0  0  0  0  0
    5.4906    0.4251   29.6679 H   0  0  0  0  0  0  0  0  0  0  0  0
    6.2072   -0.8252   28.5637 H   0  0  0  0  0  0  0  0  0  0  0  0
    4.9743    0.1790   26.6280 H   0  0  0  0  0  0  0  0  0  0  0  0
    4.2585    1.4288   27.7332 H   0  0  0  0  0  0  0  0  0  0  0  0
    6.8947    0.2651   23.5469 H   0  0  0  0  0  0  0  0  0  0  0  0
    7.6667   -0.8719   24.6647 H   0  0  0  0  0  0  0  0  0  0  0  0
    7.4755   -0.1036   26.5103 H   0  0  0  0  0  0  0  0  0  0  0  0
    8.5901    0.9107   27.4565 H   0  0  0  0  0  0  0  0  0  0  0  0
    8.1421   -3.0018   22.7838 H   0  0  0  0  0  0  0  0  0  0  0  0
  1 23  1  0  0  0  0
  1 26  3  0  0  0  0
  2  3  2  0  0  0  0
  2  4  1  0  0  0  0
  3  5  1  0  0  0  0
  4 11  2  0  0  0  0
  5 12  2  0  0  0  0
  6  7  2  0  0  0  0
  6 13  1  0  0  0  0
  7 16  1  0  0  0  0
  8 14  1  0  0  0  0
  8 16  2  0  0  0  0
  9 11  1  0  0  0  0
  9 27  2  0  0  0  0
 10 15  2  0  0  0  0
 10 27  1  0  0  0  0
 11 12  1  0  0  0  0
 12 15  1  0  0  0  0
 13 14  2  0  0  0  0
 13 19  1  0  0  0  0
 14 24  1  0  0  0  0
 15 28  1  0  0  0  0
 16 35  1  0  0  0  0
 17 28  1  0  0  0  0
 17 30  2  0  0  0  0
 18 24  1  0  0  0  0
 18 28  1  0  0  0  0
 18 31  2  0  0  0  0
 19 29  1  0  0  0  0
 20 21  1  0  0  0  0
 20 23  1  0  0  0  0
 21 23  1  0  0  0  0
 22 24  1  0  0  0  0
 22 29  1  0  0  0  0
 23 25  1  0  0  0  0
 24 30  1  0  0  0  0
 25 34  1  0  0  0  0
 29 34  1  0  0  0  0
 32 34  2  0  0  0  0
 33 34  2  0  0  0  0
  2 36  1  0  0  0  0
  3 37  1  0  0  0  0
  4 38  1  0  0  0  0
  5 39  1  0  0  0  0
  6 40  1  0  0  0  0
  7 41  1  0  0  0  0
  8 42  1  0  0  0  0
  9 43  1  0  0  0  0
 10 44  1  0  0  0  0
 17 45  1  0  0  0  0
 19 46  1  0  0  0  0
 19 47  1  0  0  0  0
 20 48  1  0  0  0  0
 20 49  1  0  0  0  0
 21 50  1  0  0  0  0
 21 51  1  0  0  0  0
 22 52  1  0  0  0  0
 22 53  1  0  0  0  0
 25 54  1  0  0  0  0
 25 55  1  0  0  0  0
 30 56  1  0  0  0  0
M  CHG  1  30   1
M  END
> <scaffold>
tetrahydroisoquinoline-5spiro-isoquinoline

> <compound>
EDG-MED-b6bce001-1

> <compound_smiles>
c1ccc2c(c1)cncc2N3C=NC4(C3=O)CN(Cc5c4cc(cc5)Cl)S(=O)(=O)CC6(CC6)C#N

> <enantiomer_smiles>
c1ccc2c(c1)cncc2N3C=N[C@@]4(C3=O)C[N@](Cc5c4cc(cc5)Cl)S(=O)(=O)CC6(CC6)C#N

> <clash_score>
0

> <docking_score>
3.4028234663852886e+38

> <overlap_score>
0.9700881242752075

> <MMFF_internal_energy>
201.89547828934738

> <docked_smiles>
c1ccc2c(c1)cncc2N3C=[NH+][C@@]4(C3=O)C[N@](Cc5c4cc(cc5)Cl)S(=O)(=O)CC6(CC6)C#N

$$$$
VLA-UNK-61877630-6_2
  -OEChem-01042202313D

 56 60  0     1  0  0  0  0  0999 V2000
    3.3444    2.6278   20.4409 C   0  0  0  0  0  0  0  0  0  0  0  0
    3.8974    1.9290   21.5048 C   0  0  0  0  0  0  0  0  0  0  0  0
    3.7877    2.4205   19.1658 C   0  0  0  0  0  0  0  0  0  0  0  0
    4.8986    1.0232   21.2985 C   0  0  0  0  0  0  0  0  0  0  0  0
   12.0781    0.0316   24.1532 C   0  0  0  0  0  0  0  0  0  0  0  0
   12.9147   -0.6032   23.2559 C   0  0  0  0  0  0  0  0  0  0  0  0
   11.0005   -1.4332   22.0435 C   0  0  0  0  0  0  0  0  0  0  0  0
    5.3288    1.2339   17.6062 C   0  0  0  0  0  0  0  0  0  0  0  0
    6.8449   -0.2893   18.3747 C   0  0  0  0  0  0  0  0  0  0  0  0
    4.8238    1.4906   18.9051 C   0  0  0  0  0  0  0  0  0  0  0  0
    5.3995    0.7732   19.9944 C   0  0  0  0  0  0  0  0  0  0  0  0
   10.7056   -0.0626   23.9890 C   0  0  0  0  0  0  0  0  0  0  0  0
   10.1421   -0.7766   22.9242 C   0  0  0  0  0  0  0  0  0  0  0  0
    6.4452   -0.1472   19.6975 C   0  0  0  0  0  0  0  0  0  0  0  0
   12.3697   -1.3298   22.2224 C   0  0  0  0  0  0  0  0  0  0  0  0
    9.9496    0.5589   24.9527 C   0  0  0  0  0  0  0  0  0  0  0  0
    8.2504    0.0168   21.4265 C   0  0  0  0  0  0  0  0  0  0  0  0
    8.5432    3.2494   23.7528 C   0  0  0  0  0  0  0  0  0  0  0  0
    8.0155   -2.1541   22.4325 C   0  0  0  0  0  0  0  0  0  0  0  0
    6.9880   -1.9367   21.3575 C   0  0  0  0  0  0  0  0  0  0  0  0
    7.8737   -0.1194   23.8825 C   0  0  2  0  0  0  0  0  0  0  0  0
    8.6253   -0.7606   22.6923 C   0  0  2  0  0  0  0  0  0  0  0  0
    7.5250    4.7837   22.0725 C   0  0  0  0  0  0  0  0  0  0  0  0
    8.1406    2.2524   24.8092 C   0  0  0  0  0  0  0  0  0  0  0  0
    6.4120    0.2750   23.5621 C   0  0  0  0  0  0  0  0  0  0  0  0
    6.3072    0.3768   17.3417 N   0  0  0  0  0  0  0  0  0  0  0  0
    7.2305   -0.6898   20.7785 N   0  0  0  0  0  0  0  0  0  0  0  0
    8.6625    1.0133   24.4989 N   0  0  0  0  0  0  0  0  0  0  0  0
    7.4338    3.7971   23.1246 N   0  0  0  0  0  0  0  0  0  0  0  0
   10.3343    0.7270   26.1041 O   0  0  0  0  0  0  0  0  0  0  0  0
    8.7541    1.0964   21.1347 O   0  0  0  0  0  0  0  0  0  0  0  0
    9.7115    3.5293   23.4978 O   0  0  0  0  0  0  0  0  0  0  0  0
    6.4349    1.4628   22.9297 F   0  0  0  0  0  0  0  0  0  0  0  0
    5.7537    0.4362   24.7247 F   0  0  0  0  0  0  0  0  0  0  0  0
   13.4299   -2.1418   21.1101 Cl  0  0  0  0  0  0  0  0  0  0  0  0
    2.5443    3.3508   20.6368 H   0  0  0  0  0  0  0  0  0  0  0  0
    3.5189    2.1137   22.5166 H   0  0  0  0  0  0  0  0  0  0  0  0
    3.3421    2.9744   18.3363 H   0  0  0  0  0  0  0  0  0  0  0  0
    5.3131    0.4893   22.1569 H   0  0  0  0  0  0  0  0  0  0  0  0
   12.5209    0.5974   24.9683 H   0  0  0  0  0  0  0  0  0  0  0  0
   13.9927   -0.5189   23.3792 H   0  0  0  0  0  0  0  0  0  0  0  0
   10.6238   -2.0174   21.2223 H   0  0  0  0  0  0  0  0  0  0  0  0
    4.9151    1.7511   16.7471 H   0  0  0  0  0  0  0  0  0  0  0  0
    7.6455   -0.9765   18.1038 H   0  0  0  0  0  0  0  0  0  0  0  0
    7.5978   -2.6278   23.3253 H   0  0  0  0  0  0  0  0  0  0  0  0
    8.7790   -2.8336   22.0329 H   0  0  0  0  0  0  0  0  0  0  0  0
    7.0352   -2.7466   20.5923 H   0  0  0  0  0  0  0  0  0  0  0  0
    5.9506   -1.9559   21.7611 H   0  0  0  0  0  0  0  0  0  0  0  0
    7.8232   -0.9002   24.6909 H   0  0  0  0  0  0  0  0  0  0  0  0
    7.5212    5.7916   22.5130 H   0  0  0  0  0  0  0  0  0  0  0  0
    8.4576    4.6334   21.5090 H   0  0  0  0  0  0  0  0  0  0  0  0
    6.6655    4.6768   21.3943 H   0  0  0  0  0  0  0  0  0  0  0  0
    8.5165    2.5765   25.7841 H   0  0  0  0  0  0  0  0  0  0  0  0
    7.0502    2.1743   24.8491 H   0  0  0  0  0  0  0  0  0  0  0  0
    5.9230   -0.4709   22.9497 H   0  0  0  0  0  0  0  0  0  0  0  0
    6.5115    3.4892   23.4189 H   0  0  0  0  0  0  0  0  0  0  0  0
  1  2  2  0  0  0  0
  1  3  1  0  0  0  0
  2  4  1  0  0  0  0
  3 10  2  0  0  0  0
  4 11  2  0  0  0  0
  5  6  2  0  0  0  0
  5 12  1  0  0  0  0
  6 15  1  0  0  0  0
  7 13  1  0  0  0  0
  7 15  2  0  0  0  0
  8 10  1  0  0  0  0
  8 26  2  0  0  0  0
  9 14  2  0  0  0  0
  9 26  1  0  0  0  0
 10 11  1  0  0  0  0
 11 14  1  0  0  0  0
 12 13  2  0  0  0  0
 12 16  1  0  0  0  0
 13 22  1  6  0  0  0
 14 27  1  0  0  0  0
 15 35  1  0  0  0  0
 16 28  1  0  0  0  0
 16 30  2  0  0  0  0
 17 22  1  6  0  0  0
 17 27  1  0  0  0  0
 17 31  2  0  0  0  0
 18 24  1  0  0  0  0
 18 29  1  0  0  0  0
 18 32  2  0  0  0  0
 19 20  1  0  0  0  0
 19 22  1  1  0  0  0
 20 27  1  0  0  0  0
 21 22  1  1  0  0  0
 21 25  1  6  0  0  0
 21 28  1  0  0  0  0
 23 29  1  0  0  0  0
 24 28  1  0  0  0  0
 25 33  1  0  0  0  0
 25 34  1  0  0  0  0
  1 36  1  0  0  0  0
  2 37  1  0  0  0  0
  3 38  1  0  0  0  0
  4 39  1  0  0  0  0
  5 40  1  0  0  0  0
  6 41  1  0  0  0  0
  7 42  1  0  0  0  0
  8 43  1  0  0  0  0
  9 44  1  0  0  0  0
 19 45  1  0  0  0  0
 19 46  1  0  0  0  0
 20 47  1  0  0  0  0
 20 48  1  0  0  0  0
 21 49  1  0  0  0  0
 23 50  1  0  0  0  0
 23 51  1  0  0  0  0
 23 52  1  0  0  0  0
 24 53  1  0  0  0  0
 24 54  1  0  0  0  0
 25 55  1  0  0  0  0
 29 56  1  0  0  0  0
M  END
> <scaffold>
tetrahydroisoquinoline-5spiro-isoquinoline

> <compound>
VLA-UNK-61877630-6

> <compound_smiles>
CNC(=O)CN1C([C@@]2(CCN(C2=O)c3cncc4c3cccc4)c5cc(ccc5C1=O)Cl)C(F)F

> <enantiomer_smiles>
CNC(=O)CN1[C@H]([C@@]2(CCN(C2=O)c3cncc4c3cccc4)c5cc(ccc5C1=O)Cl)C(F)F

> <clash_score>
0

> <docking_score>
3.4028234663852886e+38

> <overlap_score>
1.0

> <MMFF_internal_energy>
245.66414547357064

> <docked_smiles>
CNC(=O)CN1[C@H]([C@@]2(CCN(C2=O)c3cncc4c3cccc4)c5cc(ccc5C1=O)Cl)C(F)F

$$$$
EDJ-MED-cc48ee33-4_1
  -OEChem-01042202313D

 59 64  0     1  0  0  0  0  0999 V2000
    3.3444    2.6278   20.4409 C   0  0  0  0  0  0  0  0  0  0  0  0
    3.8974    1.9290   21.5048 C   0  0  0  0  0  0  0  0  0  0  0  0
    3.7877    2.4205   19.1658 C   0  0  0  0  0  0  0  0  0  0  0  0
    4.8986    1.0232   21.2985 C   0  0  0  0  0  0  0  0  0  0  0  0
   12.0781    0.0316   24.1532 C   0  0  0  0  0  0  0  0  0  0  0  0
   12.9147   -0.6032   23.2559 C   0  0  0  0  0  0  0  0  0  0  0  0
   11.0005   -1.4332   22.0435 C   0  0  0  0  0  0  0  0  0  0  0  0
    5.3288    1.2339   17.6062 C   0  0  0  0  0  0  0  0  0  0  0  0
   10.2654    4.6284   26.5790 C   0  0  0  0  0  0  0  0  0  0  0  0
    6.8449   -0.2893   18.3747 C   0  0  0  0  0  0  0  0  0  0  0  0
    4.8238    1.4906   18.9051 C   0  0  0  0  0  0  0  0  0  0  0  0
    5.3995    0.7732   19.9944 C   0  0  0  0  0  0  0  0  0  0  0  0
   10.7056   -0.0626   23.9890 C   0  0  0  0  0  0  0  0  0  0  0  0
   10.1421   -0.7766   22.9242 C   0  0  0  0  0  0  0  0  0  0  0  0
    9.2574    3.6457   26.5655 C   0  0  0  0  0  0  0  0  0  0  0  0
    6.4452   -0.1472   19.6975 C   0  0  0  0  0  0  0  0  0  0  0  0
   12.3697   -1.3298   22.2224 C   0  0  0  0  0  0  0  0  0  0  0  0
    9.1389    3.2936   25.2432 C   0  0  0  0  0  0  0  0  0  0  0  0
    8.2504    0.0168   21.4265 C   0  0  0  0  0  0  0  0  0  0  0  0
    8.2406    2.3096   24.6256 C   0  0  0  0  0  0  0  0  0  0  0  0
    9.9496    0.5589   24.9527 C   0  0  0  0  0  0  0  0  0  0  0  0
    8.0155   -2.1541   22.4325 C   0  0  0  0  0  0  0  0  0  0  0  0
    6.9880   -1.9367   21.3575 C   0  0  0  0  0  0  0  0  0  0  0  0
    7.8737   -0.1194   23.8825 C   0  0  0  0  0  0  0  0  0  0  0  0
    8.6253   -0.7606   22.6923 C   0  0  3  0  0  0  0  0  0  0  0  0
    8.5048    3.1202   27.7174 C   0  0  0  0  0  0  0  0  0  0  0  0
   10.3041    4.0508   23.1495 C   0  0  0  0  0  0  0  0  0  0  0  0
    6.3072    0.3768   17.3417 N   0  0  0  0  0  0  0  0  0  0  0  0
   10.7526    4.8841   25.3620 N   0  0  0  0  0  0  0  0  0  0  0  0
   10.0478    4.0569   24.5713 N   0  0  0  0  0  0  0  0  0  0  0  0
    7.2305   -0.6898   20.7785 N   0  0  0  0  0  0  0  0  0  0  0  0
    8.6625    1.0133   24.4989 N   0  0  0  0  0  0  0  0  0  0  0  0
    8.8293    1.0423   21.0795 O   0  0  0  0  0  0  0  0  0  0  0  0
    7.1485    2.7321   24.2494 O   0  0  0  0  0  0  0  0  0  0  0  0
   13.4297   -2.1471   21.1135 Cl  0  0  0  0  0  0  0  0  0  0  0  0
    2.5443    3.3508   20.6368 H   0  0  0  0  0  0  0  0  0  0  0  0
    3.5189    2.1137   22.5166 H   0  0  0  0  0  0  0  0  0  0  0  0
    3.3421    2.9744   18.3363 H   0  0  0  0  0  0  0  0  0  0  0  0
    5.3131    0.4893   22.1569 H   0  0  0  0  0  0  0  0  0  0  0  0
   12.5054    0.5873   24.9795 H   0  0  0  0  0  0  0  0  0  0  0  0
   13.9928   -0.5292   23.3862 H   0  0  0  0  0  0  0  0  0  0  0  0
   10.6151   -2.0340   21.2349 H   0  0  0  0  0  0  0  0  0  0  0  0
    4.9151    1.7511   16.7471 H   0  0  0  0  0  0  0  0  0  0  0  0
   10.6670    5.1702   27.4236 H   0  0  0  0  0  0  0  0  0  0  0  0
    7.6455   -0.9765   18.1038 H   0  0  0  0  0  0  0  0  0  0  0  0
    9.7853   -0.0929   25.8506 H   0  0  0  0  0  0  0  0  0  0  0  0
   10.4596    1.4724   25.3577 H   0  0  0  0  0  0  0  0  0  0  0  0
    7.5132   -2.5697   23.3189 H   0  0  0  0  0  0  0  0  0  0  0  0
    8.7733   -2.8987   22.1393 H   0  0  0  0  0  0  0  0  0  0  0  0
    7.0532   -2.7254   20.5703 H   0  0  0  0  0  0  0  0  0  0  0  0
    5.9526   -1.9949   21.7726 H   0  0  0  0  0  0  0  0  0  0  0  0
    6.9275    0.3345   23.5577 H   0  0  0  0  0  0  0  0  0  0  0  0
    7.6195   -0.8486   24.6558 H   0  0  0  0  0  0  0  0  0  0  0  0
    7.5891    3.7084   27.8995 H   0  0  0  0  0  0  0  0  0  0  0  0
    8.2007    2.0683   27.5720 H   0  0  0  0  0  0  0  0  0  0  0  0
    9.1009    3.1364   28.6473 H   0  0  0  0  0  0  0  0  0  0  0  0
    9.6449    4.7888   22.6849 H   0  0  0  0  0  0  0  0  0  0  0  0
   11.3518    4.3056   22.9673 H   0  0  0  0  0  0  0  0  0  0  0  0
   10.1036    3.0526   22.7505 H   0  0  0  0  0  0  0  0  0  0  0  0
  1  2  2  0  0  0  0
  1  3  1  0  0  0  0
  2  4  1  0  0  0  0
  3 11  2  0  0  0  0
  4 12  2  0  0  0  0
  5  6  2  0  0  0  0
  5 13  1  0  0  0  0
  6 17  1  0  0  0  0
  7 14  1  0  0  0  0
  7 17  2  0  0  0  0
  8 11  1  0  0  0  0
  8 28  2  0  0  0  0
  9 15  1  0  0  0  0
  9 29  2  0  0  0  0
 10 16  2  0  0  0  0
 10 28  1  0  0  0  0
 11 12  1  0  0  0  0
 12 16  1  0  0  0  0
 13 14  2  0  0  0  0
 13 21  1  0  0  0  0
 14 25  1  0  0  0  0
 15 18  2  0  0  0  0
 15 26  1  0  0  0  0
 16 31  1  0  0  0  0
 17 35  1  0  0  0  0
 18 20  1  0  0  0  0
 18 30  1  0  0  0  0
 19 25  1  0  0  0  0
 19 31  1  0  0  0  0
 19 33  2  0  0  0  0
 20 32  1  0  0  0  0
 20 34  2  0  0  0  0
 21 32  1  0  0  0  0
 22 23  1  0  0  0  0
 22 25  1  0  0  0  0
 23 31  1  0  0  0  0
 24 25  1  0  0  0  0
 24 32  1  0  0  0  0
 27 30  1  0  0  0  0
 29 30  1  0  0  0  0
  1 36  1  0  0  0  0
  2 37  1  0  0  0  0
  3 38  1  0  0  0  0
  4 39  1  0  0  0  0
  5 40  1  0  0  0  0
  6 41  1  0  0  0  0
  7 42  1  0  0  0  0
  8 43  1  0  0  0  0
  9 44  1  0  0  0  0
 10 45  1  0  0  0  0
 21 46  1  0  0  0  0
 21 47  1  0  0  0  0
 22 48  1  0  0  0  0
 22 49  1  0  0  0  0
 23 50  1  0  0  0  0
 23 51  1  0  0  0  0
 24 52  1  0  0  0  0
 24 53  1  0  0  0  0
 26 54  1  0  0  0  0
 26 55  1  0  0  0  0
 26 56  1  0  0  0  0
 27 57  1  0  0  0  0
 27 58  1  0  0  0  0
 27 59  1  0  0  0  0
M  END
> <scaffold>
tetrahydroisoquinoline-5spiro-isoquinoline

> <compound>
EDJ-MED-cc48ee33-4

> <compound_smiles>
Cc1cnn(c1C(=O)N2Cc3ccc(cc3C4(C2)CCN(C4=O)c5cncc6c5cccc6)Cl)C

> <enantiomer_smiles>
Cc1cnn(c1C(=O)N2Cc3ccc(cc3[C@@]4(C2)CCN(C4=O)c5cncc6c5cccc6)Cl)C

> <clash_score>
3.485411810295383

> <docking_score>
3.4028234663852886e+38

> <overlap_score>
0.9724157452583313

> <MMFF_internal_energy>
125.93505078604852

> <docked_smiles>
Cc1cnn(c1C(=O)N2Cc3ccc(cc3[C@@]4(C2)CCN(C4=O)c5cncc6c5cccc6)Cl)C

$$$$
PET-UNK-94036022-12_1
  -OEChem-01042202313D

 56 61  0     1  0  0  0  0  0999 V2000
    3.3444    2.6278   20.4409 C   0  0  0  0  0  0  0  0  0  0  0  0
    3.8974    1.9290   21.5048 C   0  0  0  0  0  0  0  0  0  0  0  0
    3.7877    2.4205   19.1658 C   0  0  0  0  0  0  0  0  0  0  0  0
    4.8986    1.0232   21.2985 C   0  0  0  0  0  0  0  0  0  0  0  0
   12.0781    0.0316   24.1532 C   0  0  0  0  0  0  0  0  0  0  0  0
   12.9147   -0.6032   23.2559 C   0  0  0  0  0  0  0  0  0  0  0  0
   11.0005   -1.4332   22.0435 C   0  0  0  0  0  0  0  0  0  0  0  0
    5.3288    1.2339   17.6062 C   0  0  0  0  0  0  0  0  0  0  0  0
    6.8449   -0.2893   18.3747 C   0  0  0  0  0  0  0  0  0  0  0  0
    4.8238    1.4906   18.9051 C   0  0  0  0  0  0  0  0  0  0  0  0
    5.3995    0.7732   19.9944 C   0  0  0  0  0  0  0  0  0  0  0  0
   10.7056   -0.0626   23.9890 C   0  0  0  0  0  0  0  0  0  0  0  0
   10.1421   -0.7766   22.9242 C   0  0  0  0  0  0  0  0  0  0  0  0
    6.4452   -0.1472   19.6975 C   0  0  0  0  0  0  0  0  0  0  0  0
   12.3697   -1.3298   22.2224 C   0  0  0  0  0  0  0  0  0  0  0  0
    6.9880   -1.9367   21.3575 C   0  0  0  0  0  0  0  0  0  0  0  0
    8.2504    0.0168   21.4265 C   0  0  0  0  0  0  0  0  0  0  0  0
    9.9496    0.5589   24.9527 C   0  0  0  0  0  0  0  0  0  0  0  0
    8.0155   -2.1541   22.4325 C   0  0  0  0  0  0  0  0  0  0  0  0
   10.2666    5.3808   24.6324 C   0  0  0  0  0  0  0  0  0  0  0  0
    9.3445    5.9212   25.6871 C   0  0  0  0  0  0  0  0  0  0  0  0
    7.8737   -0.1194   23.8825 C   0  0  0  0  0  0  0  0  0  0  0  0
    8.6253   -0.7606   22.6923 C   0  0  3  0  0  0  0  0  0  0  0  0
    8.8034    5.0097   24.6122 C   0  0  0  0  0  0  0  0  0  0  0  0
    8.4018    3.5992   24.9813 C   0  0  0  0  0  0  0  0  0  0  0  0
    6.3072    0.3768   17.3417 N   0  0  0  0  0  0  0  0  0  0  0  0
    7.2305   -0.6898   20.7785 N   0  0  0  0  0  0  0  0  0  0  0  0
    8.6625    1.0133   24.4989 N   0  0  3  0  0  0  0  0  0  0  0  0
    6.1222   -2.7602   21.1043 O   0  0  0  0  0  0  0  0  0  0  0  0
    8.7910    1.0611   21.1020 O   0  0  0  0  0  0  0  0  0  0  0  0
    7.4262    2.5285   22.8067 O   0  0  0  0  0  0  0  0  0  0  0  0
    9.9336    2.7175   23.0568 O   0  0  0  0  0  0  0  0  0  0  0  0
    8.6218    2.4827   23.6200 S   0  0  0  0  0  0  0  0  0  0  0  0
   13.4285   -2.1416   21.1080 Cl  0  0  0  0  0  0  0  0  0  0  0  0
    7.8024    5.7589   23.3531 Cl  0  0  0  0  0  0  0  0  0  0  0  0
    2.5443    3.3508   20.6368 H   0  0  0  0  0  0  0  0  0  0  0  0
    3.5189    2.1137   22.5166 H   0  0  0  0  0  0  0  0  0  0  0  0
    3.3421    2.9744   18.3363 H   0  0  0  0  0  0  0  0  0  0  0  0
    5.3131    0.4893   22.1569 H   0  0  0  0  0  0  0  0  0  0  0  0
   12.5036    0.5928   24.9773 H   0  0  0  0  0  0  0  0  0  0  0  0
   13.9927   -0.5225   23.3814 H   0  0  0  0  0  0  0  0  0  0  0  0
   10.6045   -2.0211   21.2270 H   0  0  0  0  0  0  0  0  0  0  0  0
    4.9151    1.7511   16.7471 H   0  0  0  0  0  0  0  0  0  0  0  0
    7.6455   -0.9765   18.1038 H   0  0  0  0  0  0  0  0  0  0  0  0
    9.7608   -0.1291   25.8168 H   0  0  0  0  0  0  0  0  0  0  0  0
   10.4951    1.4388   25.3829 H   0  0  0  0  0  0  0  0  0  0  0  0
    7.5419   -2.5808   23.3241 H   0  0  0  0  0  0  0  0  0  0  0  0
    8.7461   -2.8785   22.0508 H   0  0  0  0  0  0  0  0  0  0  0  0
   10.6414    6.0755   23.8899 H   0  0  0  0  0  0  0  0  0  0  0  0
   10.9876    4.6295   24.9326 H   0  0  0  0  0  0  0  0  0  0  0  0
    9.4480    5.5310   26.6927 H   0  0  0  0  0  0  0  0  0  0  0  0
    9.1031    6.9769   25.6495 H   0  0  0  0  0  0  0  0  0  0  0  0
    6.8898    0.2774   23.5690 H   0  0  0  0  0  0  0  0  0  0  0  0
    7.6642   -0.8749   24.6614 H   0  0  0  0  0  0  0  0  0  0  0  0
    7.3473    3.5547   25.2674 H   0  0  0  0  0  0  0  0  0  0  0  0
    9.0096    3.2229   25.8085 H   0  0  0  0  0  0  0  0  0  0  0  0
  1  2  2  0  0  0  0
  1  3  1  0  0  0  0
  2  4  1  0  0  0  0
  3 10  2  0  0  0  0
  4 11  2  0  0  0  0
  5  6  2  0  0  0  0
  5 12  1  0  0  0  0
  6 15  1  0  0  0  0
  7 13  1  0  0  0  0
  7 15  2  0  0  0  0
  8 10  1  0  0  0  0
  8 26  2  0  0  0  0
  9 14  2  0  0  0  0
  9 26  1  0  0  0  0
 10 11  1  0  0  0  0
 11 14  1  0  0  0  0
 12 13  2  0  0  0  0
 12 18  1  0  0  0  0
 13 23  1  0  0  0  0
 14 27  1  0  0  0  0
 15 34  1  0  0  0  0
 16 19  1  0  0  0  0
 16 27  1  0  0  0  0
 16 29  2  0  0  0  0
 17 23  1  0  0  0  0
 17 27  1  0  0  0  0
 17 30  2  0  0  0  0
 18 28  1  0  0  0  0
 19 23  1  0  0  0  0
 20 21  1  0  0  0  0
 20 24  1  0  0  0  0
 21 24  1  0  0  0  0
 22 23  1  0  0  0  0
 22 28  1  0  0  0  0
 24 25  1  0  0  0  0
 24 35  1  0  0  0  0
 25 33  1  0  0  0  0
 28 33  1  0  0  0  0
 31 33  2  0  0  0  0
 32 33  2  0  0  0  0
  1 36  1  0  0  0  0
  2 37  1  0  0  0  0
  3 38  1  0  0  0  0
  4 39  1  0  0  0  0
  5 40  1  0  0  0  0
  6 41  1  0  0  0  0
  7 42  1  0  0  0  0
  8 43  1  0  0  0  0
  9 44  1  0  0  0  0
 18 45  1  0  0  0  0
 18 46  1  0  0  0  0
 19 47  1  0  0  0  0
 19 48  1  0  0  0  0
 20 49  1  0  0  0  0
 20 50  1  0  0  0  0
 21 51  1  0  0  0  0
 21 52  1  0  0  0  0
 22 53  1  0  0  0  0
 22 54  1  0  0  0  0
 25 55  1  0  0  0  0
 25 56  1  0  0  0  0
M  END
> <scaffold>
tetrahydroisoquinoline-5spiro-isoquinoline

> <compound>
PET-UNK-94036022-12

> <compound_smiles>
c1ccc2c(c1)cncc2N3C(=O)CC4(C3=O)CN(Cc5c4cc(cc5)Cl)S(=O)(=O)CC6(CC6)Cl

> <enantiomer_smiles>
c1ccc2c(c1)cncc2N3C(=O)C[C@@]4(C3=O)C[N@@](Cc5c4cc(cc5)Cl)S(=O)(=O)CC6(CC6)Cl

> <clash_score>
0

> <docking_score>
3.4028234663852886e+38

> <overlap_score>
1.0

> <MMFF_internal_energy>
83.54257823034544

> <docked_smiles>
c1ccc2c(c1)cncc2N3C(=O)C[C@@]4(C3=O)C[N@@](Cc5c4cc(cc5)Cl)S(=O)(=O)CC6(CC6)Cl

$$$$
EDJ-MED-ede5c6cb-2_1
  -OEChem-01042202313D

 57 62  0     1  0  0  0  0  0999 V2000
    4.8986    1.0232   21.2985 C   0  0  0  0  0  0  0  0  0  0  0  0
    3.8974    1.9290   21.5048 C   0  0  0  0  0  0  0  0  0  0  0  0
   12.0781    0.0316   24.1532 C   0  0  0  0  0  0  0  0  0  0  0  0
   12.9147   -0.6032   23.2559 C   0  0  0  0  0  0  0  0  0  0  0  0
    3.7877    2.4205   19.1658 C   0  0  0  0  0  0  0  0  0  0  0  0
   11.0005   -1.4332   22.0435 C   0  0  0  0  0  0  0  0  0  0  0  0
    5.3288    1.2339   17.6062 C   0  0  0  0  0  0  0  0  0  0  0  0
    6.8449   -0.2893   18.3747 C   0  0  0  0  0  0  0  0  0  0  0  0
    5.3995    0.7732   19.9944 C   0  0  0  0  0  0  0  0  0  0  0  0
    4.8238    1.4906   18.9051 C   0  0  0  0  0  0  0  0  0  0  0  0
   10.1421   -0.7766   22.9242 C   0  0  0  0  0  0  0  0  0  0  0  0
    6.4452   -0.1472   19.6975 C   0  0  0  0  0  0  0  0  0  0  0  0
    3.3444    2.6278   20.4409 C   0  0  0  0  0  0  0  0  0  0  0  0
   10.7056   -0.0626   23.9890 C   0  0  0  0  0  0  0  0  0  0  0  0
   12.3697   -1.3298   22.2224 C   0  0  0  0  0  0  0  0  0  0  0  0
    8.2504    0.0168   21.4265 C   0  0  0  0  0  0  0  0  0  0  0  0
   -0.9438    1.2043   21.0759 C   0  0  0  0  0  0  0  0  0  0  0  0
    0.4503    0.6444   21.1373 C   0  0  0  0  0  0  0  0  0  0  0  0
    8.0155   -2.1541   22.4325 C   0  0  0  0  0  0  0  0  0  0  0  0
    7.8737   -0.1194   23.8825 C   0  0  0  0  0  0  0  0  0  0  0  0
    6.9880   -1.9367   21.3575 C   0  0  0  0  0  0  0  0  0  0  0  0
    8.6625    1.0133   24.4989 C   0  0  0  0  0  0  0  0  0  0  0  0
    0.2025    2.0833   21.4737 C   0  0  0  0  0  0  0  0  0  0  0  0
    8.6253   -0.7606   22.6923 C   0  0  3  0  0  0  0  0  0  0  0  0
    6.3072    0.3768   17.3417 N   0  0  0  0  0  0  0  0  0  0  0  0
    7.2305   -0.6898   20.7785 N   0  0  0  0  0  0  0  0  0  0  0  0
    2.2947    3.5766   20.6954 N   0  0  0  0  0  0  0  0  0  0  0  0
    8.7566    1.0941   21.1311 O   0  0  0  0  0  0  0  0  0  0  0  0
    9.7120   -0.4300   26.1378 O   0  0  0  0  0  0  0  0  0  0  0  0
   10.7467    1.7884   25.4917 O   0  0  0  0  0  0  0  0  0  0  0  0
   -0.1233    4.3729   20.2825 O   0  0  0  0  0  0  0  0  0  0  0  0
    0.7362    2.4261   18.9350 O   0  0  0  0  0  0  0  0  0  0  0  0
    9.9496    0.5589   24.9527 S   0  0  0  0  0  0  0  0  0  0  0  0
    0.7022    3.1849   20.1694 S   0  0  0  0  0  0  0  0  0  0  0  0
   13.4302   -2.1437   21.1108 Cl  0  0  0  0  0  0  0  0  0  0  0  0
    5.3129    0.4891   22.1565 H   0  0  0  0  0  0  0  0  0  0  0  0
    3.5264    2.1066   22.5215 H   0  0  0  0  0  0  0  0  0  0  0  0
   12.5141    0.5961   24.9741 H   0  0  0  0  0  0  0  0  0  0  0  0
   13.9930   -0.5214   23.3817 H   0  0  0  0  0  0  0  0  0  0  0  0
    3.3490    2.9700   18.3283 H   0  0  0  0  0  0  0  0  0  0  0  0
   10.6120   -2.0228   21.2300 H   0  0  0  0  0  0  0  0  0  0  0  0
    4.9144    1.7516   16.7476 H   0  0  0  0  0  0  0  0  0  0  0  0
    7.6459   -0.9758   18.1038 H   0  0  0  0  0  0  0  0  0  0  0  0
   -1.3966    1.3243   20.0994 H   0  0  0  0  0  0  0  0  0  0  0  0
   -1.6394    0.9036   21.8505 H   0  0  0  0  0  0  0  0  0  0  0  0
    0.6843   -0.0297   21.9528 H   0  0  0  0  0  0  0  0  0  0  0  0
    0.9327    0.3887   20.2021 H   0  0  0  0  0  0  0  0  0  0  0  0
    7.5792   -2.6139   23.3283 H   0  0  0  0  0  0  0  0  0  0  0  0
    8.7727   -2.8629   22.0635 H   0  0  0  0  0  0  0  0  0  0  0  0
    7.6629   -0.8655   24.6523 H   0  0  0  0  0  0  0  0  0  0  0  0
    6.9026    0.2573   23.5461 H   0  0  0  0  0  0  0  0  0  0  0  0
    7.0247   -2.7501   20.5941 H   0  0  0  0  0  0  0  0  0  0  0  0
    5.9565   -1.9488   21.7820 H   0  0  0  0  0  0  0  0  0  0  0  0
    8.7048    1.8247   23.7053 H   0  0  0  0  0  0  0  0  0  0  0  0
    8.0006    1.4860   25.2925 H   0  0  0  0  0  0  0  0  0  0  0  0
    0.2868    2.4059   22.5014 H   0  0  0  0  0  0  0  0  0  0  0  0
    2.3417    4.0295   21.6232 H   0  0  0  0  0  0  0  0  0  0  0  0
  1  2  2  0  0  0  0
  1  9  1  0  0  0  0
  2 13  1  0  0  0  0
  3  4  2  0  0  0  0
  3 14  1  0  0  0  0
  4 15  1  0  0  0  0
  5 10  1  0  0  0  0
  5 13  2  0  0  0  0
  6 11  1  0  0  0  0
  6 15  2  0  0  0  0
  7 10  2  0  0  0  0
  7 25  1  0  0  0  0
  8 12  1  0  0  0  0
  8 25  2  0  0  0  0
  9 10  1  0  0  0  0
  9 12  2  0  0  0  0
 11 14  2  0  0  0  0
 11 24  1  0  0  0  0
 12 26  1  0  0  0  0
 13 27  1  0  0  0  0
 14 33  1  0  0  0  0
 15 35  1  0  0  0  0
 16 24  1  0  0  0  0
 16 26  1  0  0  0  0
 16 28  2  0  0  0  0
 17 18  1  0  0  0  0
 17 23  1  0  0  0  0
 18 23  1  0  0  0  0
 19 21  1  0  0  0  0
 19 24  1  0  0  0  0
 20 22  1  0  0  0  0
 20 24  1  0  0  0  0
 21 26  1  0  0  0  0
 22 33  1  0  0  0  0
 23 34  1  0  0  0  0
 27 34  1  0  0  0  0
 29 33  2  0  0  0  0
 30 33  2  0  0  0  0
 31 34  2  0  0  0  0
 32 34  2  0  0  0  0
  1 36  1  0  0  0  0
  2 37  1  0  0  0  0
  3 38  1  0  0  0  0
  4 39  1  0  0  0  0
  5 40  1  0  0  0  0
  6 41  1  0  0  0  0
  7 42  1  0  0  0  0
  8 43  1  0  0  0  0
 17 44  1  0  0  0  0
 17 45  1  0  0  0  0
 18 46  1  0  0  0  0
 18 47  1  0  0  0  0
 19 48  1  0  0  0  0
 19 49  1  0  0  0  0
 20 50  1  0  0  0  0
 20 51  1  0  0  0  0
 21 52  1  0  0  0  0
 21 53  1  0  0  0  0
 22 54  1  0  0  0  0
 22 55  1  0  0  0  0
 23 56  1  0  0  0  0
 27 57  1  0  0  0  0
M  END
> <scaffold>
tetralinlike-5spiro-isoquinoline

> <compound>
EDJ-MED-ede5c6cb-2

> <compound_smiles>
c1cc2c(cc1NS(=O)(=O)C3CC3)cncc2N4CCC5(C4=O)CCS(=O)(=O)c6c5cc(cc6)Cl

> <enantiomer_smiles>
c1cc2c(cc1NS(=O)(=O)C3CC3)cncc2N4CC[C@@]5(C4=O)CCS(=O)(=O)c6c5cc(cc6)Cl

> <clash_score>
4.168810334327979

> <docking_score>
3.4028234663852886e+38

> <overlap_score>
0.9904209971427917

> <MMFF_internal_energy>
271.3854086528156

> <docked_smiles>
c1cc2c(cc1NS(=O)(=O)C3CC3)cncc2N4CC[C@@]5(C4=O)CCS(=O)(=O)c6c5cc(cc6)Cl

$$$$
EDJ-MED-cc48ee33-5_1
  -OEChem-01042202313D

 59 64  0     1  0  0  0  0  0999 V2000
    3.3444    2.6278   20.4409 C   0  0  0  0  0  0  0  0  0  0  0  0
    3.8974    1.9290   21.5048 C   0  0  0  0  0  0  0  0  0  0  0  0
    3.7877    2.4205   19.1658 C   0  0  0  0  0  0  0  0  0  0  0  0
    4.8986    1.0232   21.2985 C   0  0  0  0  0  0  0  0  0  0  0  0
   12.0781    0.0316   24.1532 C   0  0  0  0  0  0  0  0  0  0  0  0
   12.9147   -0.6032   23.2559 C   0  0  0  0  0  0  0  0  0  0  0  0
   11.0005   -1.4332   22.0435 C   0  0  0  0  0  0  0  0  0  0  0  0
    9.0941    3.7975   26.3389 C   0  0  0  0  0  0  0  0  0  0  0  0
    5.3288    1.2339   17.6062 C   0  0  0  0  0  0  0  0  0  0  0  0
    6.8449   -0.2893   18.3747 C   0  0  0  0  0  0  0  0  0  0  0  0
    4.8238    1.4906   18.9051 C   0  0  0  0  0  0  0  0  0  0  0  0
    5.3995    0.7732   19.9944 C   0  0  0  0  0  0  0  0  0  0  0  0
   10.7056   -0.0626   23.9890 C   0  0  0  0  0  0  0  0  0  0  0  0
   10.1421   -0.7766   22.9242 C   0  0  0  0  0  0  0  0  0  0  0  0
    6.4452   -0.1472   19.6975 C   0  0  0  0  0  0  0  0  0  0  0  0
   12.3697   -1.3298   22.2224 C   0  0  0  0  0  0  0  0  0  0  0  0
    9.0025    3.3443   25.0456 C   0  0  0  0  0  0  0  0  0  0  0  0
   10.0597    4.8206   26.2857 C   0  0  0  0  0  0  0  0  0  0  0  0
    8.2504    0.0168   21.4265 C   0  0  0  0  0  0  0  0  0  0  0  0
    8.1479    2.2775   24.5039 C   0  0  0  0  0  0  0  0  0  0  0  0
    9.9496    0.5589   24.9527 C   0  0  0  0  0  0  0  0  0  0  0  0
    8.0155   -2.1541   22.4325 C   0  0  0  0  0  0  0  0  0  0  0  0
    6.9880   -1.9367   21.3575 C   0  0  0  0  0  0  0  0  0  0  0  0
    7.8737   -0.1194   23.8825 C   0  0  0  0  0  0  0  0  0  0  0  0
    8.6253   -0.7606   22.6923 C   0  0  3  0  0  0  0  0  0  0  0  0
   10.5483    5.6513   27.3992 C   0  0  0  0  0  0  0  0  0  0  0  0
   10.1534    3.9943   22.9087 C   0  0  0  0  0  0  0  0  0  0  0  0
    6.3072    0.3768   17.3417 N   0  0  0  0  0  0  0  0  0  0  0  0
   10.5468    5.0065   25.0560 N   0  0  0  0  0  0  0  0  0  0  0  0
    9.8847    4.0941   24.3245 N   0  0  0  0  0  0  0  0  0  0  0  0
    7.2305   -0.6898   20.7785 N   0  0  0  0  0  0  0  0  0  0  0  0
    8.6625    1.0133   24.4989 N   0  0  0  0  0  0  0  0  0  0  0  0
    8.7600    1.0855   21.1262 O   0  0  0  0  0  0  0  0  0  0  0  0
    7.0365    2.6212   24.1037 O   0  0  0  0  0  0  0  0  0  0  0  0
   13.4297   -2.1471   21.1135 Cl  0  0  0  0  0  0  0  0  0  0  0  0
    2.5443    3.3508   20.6368 H   0  0  0  0  0  0  0  0  0  0  0  0
    3.5189    2.1137   22.5166 H   0  0  0  0  0  0  0  0  0  0  0  0
    3.3421    2.9744   18.3363 H   0  0  0  0  0  0  0  0  0  0  0  0
    5.3131    0.4893   22.1569 H   0  0  0  0  0  0  0  0  0  0  0  0
   12.5054    0.5873   24.9795 H   0  0  0  0  0  0  0  0  0  0  0  0
   13.9928   -0.5292   23.3862 H   0  0  0  0  0  0  0  0  0  0  0  0
   10.6151   -2.0340   21.2349 H   0  0  0  0  0  0  0  0  0  0  0  0
    8.5422    3.4398   27.1965 H   0  0  0  0  0  0  0  0  0  0  0  0
    4.9151    1.7511   16.7471 H   0  0  0  0  0  0  0  0  0  0  0  0
    7.6455   -0.9765   18.1038 H   0  0  0  0  0  0  0  0  0  0  0  0
    9.7850   -0.0928   25.8506 H   0  0  0  0  0  0  0  0  0  0  0  0
   10.4594    1.4725   25.3577 H   0  0  0  0  0  0  0  0  0  0  0  0
    7.5133   -2.5697   23.3190 H   0  0  0  0  0  0  0  0  0  0  0  0
    8.7734   -2.8987   22.1394 H   0  0  0  0  0  0  0  0  0  0  0  0
    7.0532   -2.7254   20.5703 H   0  0  0  0  0  0  0  0  0  0  0  0
    5.9526   -1.9949   21.7726 H   0  0  0  0  0  0  0  0  0  0  0  0
    6.9275    0.3346   23.5578 H   0  0  0  0  0  0  0  0  0  0  0  0
    7.6195   -0.8485   24.6559 H   0  0  0  0  0  0  0  0  0  0  0  0
   11.4212    5.1888   27.8912 H   0  0  0  0  0  0  0  0  0  0  0  0
   10.8507    6.6601   27.0658 H   0  0  0  0  0  0  0  0  0  0  0  0
    9.7754    5.8084   28.1729 H   0  0  0  0  0  0  0  0  0  0  0  0
    9.4680    4.6675   22.3871 H   0  0  0  0  0  0  0  0  0  0  0  0
   11.1911    4.2791   22.7141 H   0  0  0  0  0  0  0  0  0  0  0  0
    9.9984    2.9618   22.5834 H   0  0  0  0  0  0  0  0  0  0  0  0
  1  2  2  0  0  0  0
  1  3  1  0  0  0  0
  2  4  1  0  0  0  0
  3 11  2  0  0  0  0
  4 12  2  0  0  0  0
  5  6  2  0  0  0  0
  5 13  1  0  0  0  0
  6 16  1  0  0  0  0
  7 14  1  0  0  0  0
  7 16  2  0  0  0  0
  8 17  2  0  0  0  0
  8 18  1  0  0  0  0
  9 11  1  0  0  0  0
  9 28  2  0  0  0  0
 10 15  2  0  0  0  0
 10 28  1  0  0  0  0
 11 12  1  0  0  0  0
 12 15  1  0  0  0  0
 13 14  2  0  0  0  0
 13 21  1  0  0  0  0
 14 25  1  0  0  0  0
 15 31  1  0  0  0  0
 16 35  1  0  0  0  0
 17 20  1  0  0  0  0
 17 30  1  0  0  0  0
 18 26  1  0  0  0  0
 18 29  2  0  0  0  0
 19 25  1  0  0  0  0
 19 31  1  0  0  0  0
 19 33  2  0  0  0  0
 20 32  1  0  0  0  0
 20 34  2  0  0  0  0
 21 32  1  0  0  0  0
 22 23  1  0  0  0  0
 22 25  1  0  0  0  0
 23 31  1  0  0  0  0
 24 25  1  0  0  0  0
 24 32  1  0  0  0  0
 27 30  1  0  0  0  0
 29 30  1  0  0  0  0
  1 36  1  0  0  0  0
  2 37  1  0  0  0  0
  3 38  1  0  0  0  0
  4 39  1  0  0  0  0
  5 40  1  0  0  0  0
  6 41  1  0  0  0  0
  7 42  1  0  0  0  0
  8 43  1  0  0  0  0
  9 44  1  0  0  0  0
 10 45  1  0  0  0  0
 21 46  1  0  0  0  0
 21 47  1  0  0  0  0
 22 48  1  0  0  0  0
 22 49  1  0  0  0  0
 23 50  1  0  0  0  0
 23 51  1  0  0  0  0
 24 52  1  0  0  0  0
 24 53  1  0  0  0  0
 26 54  1  0  0  0  0
 26 55  1  0  0  0  0
 26 56  1  0  0  0  0
 27 57  1  0  0  0  0
 27 58  1  0  0  0  0
 27 59  1  0  0  0  0
M  END
> <scaffold>
tetrahydroisoquinoline-5spiro-isoquinoline

> <compound>
EDJ-MED-cc48ee33-5

> <compound_smiles>
Cc1cc(n(n1)C)C(=O)N2Cc3ccc(cc3C4(C2)CCN(C4=O)c5cncc6c5cccc6)Cl

> <enantiomer_smiles>
Cc1cc(n(n1)C)C(=O)N2Cc3ccc(cc3[C@@]4(C2)CCN(C4=O)c5cncc6c5cccc6)Cl

> <clash_score>
2.791729348718535

> <docking_score>
3.4028234663852886e+38

> <overlap_score>
0.972632646560669

> <MMFF_internal_energy>
123.1931328770511

> <docked_smiles>
Cc1cc(n(n1)C)C(=O)N2Cc3ccc(cc3[C@@]4(C2)CCN(C4=O)c5cncc6c5cccc6)Cl

$$$$
EDJ-MED-9f4ac58c-6_1
  -OEChem-01042202313D

 60 65  0     1  0  0  0  0  0999 V2000
    3.3444    2.6278   20.4409 C   0  0  0  0  0  0  0  0  0  0  0  0
    3.8974    1.9290   21.5048 C   0  0  0  0  0  0  0  0  0  0  0  0
    3.7877    2.4205   19.1658 C   0  0  0  0  0  0  0  0  0  0  0  0
    4.8986    1.0232   21.2985 C   0  0  0  0  0  0  0  0  0  0  0  0
   12.0781    0.0316   24.1532 C   0  0  0  0  0  0  0  0  0  0  0  0
   12.9147   -0.6032   23.2559 C   0  0  0  0  0  0  0  0  0  0  0  0
   11.0005   -1.4332   22.0435 C   0  0  0  0  0  0  0  0  0  0  0  0
    5.3288    1.2339   17.6062 C   0  0  0  0  0  0  0  0  0  0  0  0
    6.8449   -0.2893   18.3747 C   0  0  0  0  0  0  0  0  0  0  0  0
    4.8238    1.4906   18.9051 C   0  0  0  0  0  0  0  0  0  0  0  0
    5.3995    0.7732   19.9944 C   0  0  0  0  0  0  0  0  0  0  0  0
   10.7056   -0.0626   23.9890 C   0  0  0  0  0  0  0  0  0  0  0  0
   10.1421   -0.7766   22.9242 C   0  0  0  0  0  0  0  0  0  0  0  0
    6.4452   -0.1472   19.6975 C   0  0  0  0  0  0  0  0  0  0  0  0
   12.3697   -1.3298   22.2224 C   0  0  0  0  0  0  0  0  0  0  0  0
    9.9496    0.5589   24.9527 C   0  0  0  0  0  0  0  0  0  0  0  0
    8.2504    0.0168   21.4265 C   0  0  0  0  0  0  0  0  0  0  0  0
    5.6592    2.5893   28.4120 C   0  0  0  0  0  0  0  0  0  0  0  0
    6.7130    3.6210   28.1192 C   0  0  0  0  0  0  0  0  0  0  0  0
    8.0155   -2.1541   22.4325 C   0  0  0  0  0  0  0  0  0  0  0  0
    6.9880   -1.9367   21.3575 C   0  0  0  0  0  0  0  0  0  0  0  0
    7.8737   -0.1194   23.8825 C   0  0  0  0  0  0  0  0  0  0  0  0
    8.6253   -0.7606   22.6923 C   0  0  3  0  0  0  0  0  0  0  0  0
    6.1458    2.7877   27.0020 C   0  0  0  0  0  0  0  0  0  0  0  0
    4.0261    2.7322   25.9888 C   0  0  0  0  0  0  0  0  0  0  0  0
    6.9941    1.7268   26.3371 C   0  0  0  0  0  0  0  0  0  0  0  0
    6.3072    0.3768   17.3417 N   0  0  0  0  0  0  0  0  0  0  0  0
    7.2305   -0.6898   20.7785 N   0  0  0  0  0  0  0  0  0  0  0  0
    8.6625    1.0133   24.4989 N   0  0  0  0  0  0  0  0  0  0  0  0
   10.3166    0.7434   26.1217 O   0  0  0  0  0  0  0  0  0  0  0  0
    8.8196    1.0408   21.0766 O   0  0  0  0  0  0  0  0  0  0  0  0
    6.9311    2.7494   23.9334 O   0  0  0  0  0  0  0  0  0  0  0  0
    8.8702    3.3156   25.4517 O   0  0  0  0  0  0  0  0  0  0  0  0
    5.2370    3.4549   26.1106 O   0  0  0  0  0  0  0  0  0  0  0  0
    7.8873    2.3819   24.9522 S   0  0  0  0  0  0  0  0  0  0  0  0
   13.4293   -2.1466   21.1128 Cl  0  0  0  0  0  0  0  0  0  0  0  0
    2.5443    3.3508   20.6368 H   0  0  0  0  0  0  0  0  0  0  0  0
    3.5189    2.1137   22.5166 H   0  0  0  0  0  0  0  0  0  0  0  0
    3.3421    2.9744   18.3363 H   0  0  0  0  0  0  0  0  0  0  0  0
    5.3131    0.4893   22.1569 H   0  0  0  0  0  0  0  0  0  0  0  0
   12.5191    0.5957   24.9706 H   0  0  0  0  0  0  0  0  0  0  0  0
   13.9921   -0.5215   23.3809 H   0  0  0  0  0  0  0  0  0  0  0  0
   10.6170   -2.0260   21.2272 H   0  0  0  0  0  0  0  0  0  0  0  0
    4.9151    1.7511   16.7471 H   0  0  0  0  0  0  0  0  0  0  0  0
    7.6455   -0.9765   18.1038 H   0  0  0  0  0  0  0  0  0  0  0  0
    5.9648    1.6969   28.9448 H   0  0  0  0  0  0  0  0  0  0  0  0
    4.6668    2.9418   28.6662 H   0  0  0  0  0  0  0  0  0  0  0  0
    6.4263    4.6642   28.1777 H   0  0  0  0  0  0  0  0  0  0  0  0
    7.7223    3.4172   28.4560 H   0  0  0  0  0  0  0  0  0  0  0  0
    7.5124   -2.5282   23.3379 H   0  0  0  0  0  0  0  0  0  0  0  0
    8.7585   -2.9105   22.1421 H   0  0  0  0  0  0  0  0  0  0  0  0
    7.0610   -2.7257   20.5719 H   0  0  0  0  0  0  0  0  0  0  0  0
    5.9524   -1.9968   21.7699 H   0  0  0  0  0  0  0  0  0  0  0  0
    6.8990    0.2933   23.5632 H   0  0  0  0  0  0  0  0  0  0  0  0
    7.6456   -0.8834   24.6465 H   0  0  0  0  0  0  0  0  0  0  0  0
    3.3536    3.2589   25.3074 H   0  0  0  0  0  0  0  0  0  0  0  0
    3.5602    2.6318   26.9723 H   0  0  0  0  0  0  0  0  0  0  0  0
    4.2434    1.7395   25.5877 H   0  0  0  0  0  0  0  0  0  0  0  0
    6.3739    0.9078   25.9624 H   0  0  0  0  0  0  0  0  0  0  0  0
    7.7323    1.3219   27.0346 H   0  0  0  0  0  0  0  0  0  0  0  0
  1  2  2  0  0  0  0
  1  3  1  0  0  0  0
  2  4  1  0  0  0  0
  3 10  2  0  0  0  0
  4 11  2  0  0  0  0
  5  6  2  0  0  0  0
  5 12  1  0  0  0  0
  6 15  1  0  0  0  0
  7 13  1  0  0  0  0
  7 15  2  0  0  0  0
  8 10  1  0  0  0  0
  8 27  2  0  0  0  0
  9 14  2  0  0  0  0
  9 27  1  0  0  0  0
 10 11  1  0  0  0  0
 11 14  1  0  0  0  0
 12 13  2  0  0  0  0
 12 16  1  0  0  0  0
 13 23  1  0  0  0  0
 14 28  1  0  0  0  0
 15 36  1  0  0  0  0
 16 29  1  0  0  0  0
 16 30  2  0  0  0  0
 17 23  1  0  0  0  0
 17 28  1  0  0  0  0
 17 31  2  0  0  0  0
 18 19  1  0  0  0  0
 18 24  1  0  0  0  0
 19 24  1  0  0  0  0
 20 21  1  0  0  0  0
 20 23  1  0  0  0  0
 21 28  1  0  0  0  0
 22 23  1  0  0  0  0
 22 29  1  0  0  0  0
 24 26  1  0  0  0  0
 24 34  1  0  0  0  0
 25 34  1  0  0  0  0
 26 35  1  0  0  0  0
 29 35  1  0  0  0  0
 32 35  2  0  0  0  0
 33 35  2  0  0  0  0
  1 37  1  0  0  0  0
  2 38  1  0  0  0  0
  3 39  1  0  0  0  0
  4 40  1  0  0  0  0
  5 41  1  0  0  0  0
  6 42  1  0  0  0  0
  7 43  1  0  0  0  0
  8 44  1  0  0  0  0
  9 45  1  0  0  0  0
 18 46  1  0  0  0  0
 18 47  1  0  0  0  0
 19 48  1  0  0  0  0
 19 49  1  0  0  0  0
 20 50  1  0  0  0  0
 20 51  1  0  0  0  0
 21 52  1  0  0  0  0
 21 53  1  0  0  0  0
 22 54  1  0  0  0  0
 22 55  1  0  0  0  0
 25 56  1  0  0  0  0
 25 57  1  0  0  0  0
 25 58  1  0  0  0  0
 26 59  1  0  0  0  0
 26 60  1  0  0  0  0
M  END
> <scaffold>
tetrahydroisoquinoline-5spiro-isoquinoline

> <compound>
EDJ-MED-9f4ac58c-6

> <compound_smiles>
COC1(CC1)CS(=O)(=O)N2CC3(CCN(C3=O)c4cncc5c4cccc5)c6cc(ccc6C2=O)Cl

> <enantiomer_smiles>
COC1(CC1)CS(=O)(=O)N2C[C@]3(CCN(C3=O)c4cncc5c4cccc5)c6cc(ccc6C2=O)Cl

> <clash_score>
0

> <docking_score>
3.4028234663852886e+38

> <overlap_score>
0.9815753698348999

> <MMFF_internal_energy>
108.43113931040793

> <docked_smiles>
COC1(CC1)CS(=O)(=O)N2C[C@]3(CCN(C3=O)c4cncc5c4cccc5)c6cc(ccc6C2=O)Cl

$$$$
LUO-POS-868e8996-10_1
  -OEChem-01042202313D

 57 62  0     1  0  0  0  0  0999 V2000
    6.6110    2.5927   28.4537 C   0  0  0  0  0  0  0  0  0  0  0  0
    3.3444    2.6278   20.4409 C   0  0  0  0  0  0  0  0  0  0  0  0
    3.8974    1.9290   21.5048 C   0  0  0  0  0  0  0  0  0  0  0  0
    3.7877    2.4205   19.1658 C   0  0  0  0  0  0  0  0  0  0  0  0
    4.8986    1.0232   21.2985 C   0  0  0  0  0  0  0  0  0  0  0  0
   12.0781    0.0316   24.1532 C   0  0  0  0  0  0  0  0  0  0  0  0
   12.9147   -0.6032   23.2559 C   0  0  0  0  0  0  0  0  0  0  0  0
   11.0005   -1.4332   22.0435 C   0  0  0  0  0  0  0  0  0  0  0  0
    5.3288    1.2339   17.6062 C   0  0  0  0  0  0  0  0  0  0  0  0
    6.8449   -0.2893   18.3747 C   0  0  0  0  0  0  0  0  0  0  0  0
    4.8238    1.4906   18.9051 C   0  0  0  0  0  0  0  0  0  0  0  0
    5.3995    0.7732   19.9944 C   0  0  0  0  0  0  0  0  0  0  0  0
   10.7056   -0.0626   23.9890 C   0  0  0  0  0  0  0  0  0  0  0  0
   10.1421   -0.7766   22.9242 C   0  0  0  0  0  0  0  0  0  0  0  0
    6.4452   -0.1472   19.6975 C   0  0  0  0  0  0  0  0  0  0  0  0
   12.3697   -1.3298   22.2224 C   0  0  0  0  0  0  0  0  0  0  0  0
    6.9880   -1.9367   21.3575 C   0  0  0  0  0  0  0  0  0  0  0  0
    8.2504    0.0168   21.4265 C   0  0  0  0  0  0  0  0  0  0  0  0
    9.9496    0.5589   24.9527 C   0  0  0  0  0  0  0  0  0  0  0  0
    8.0155   -2.1541   22.4325 C   0  0  0  0  0  0  0  0  0  0  0  0
    5.8408    0.2025   28.6759 C   0  0  0  0  0  0  0  0  0  0  0  0
    5.1049    0.8025   27.5144 C   0  0  0  0  0  0  0  0  0  0  0  0
    7.8737   -0.1194   23.8825 C   0  0  0  0  0  0  0  0  0  0  0  0
    6.4962    1.2889   27.8531 C   0  0  0  0  0  0  0  0  0  0  0  0
    8.6253   -0.7606   22.6923 C   0  0  2  0  0  0  0  0  0  0  0  0
    7.6308    0.8982   26.9326 C   0  0  0  0  0  0  0  0  0  0  0  0
    6.7034    3.6432   28.9377 N   0  0  0  0  0  0  0  0  0  0  0  0
    6.3072    0.3768   17.3417 N   0  0  0  0  0  0  0  0  0  0  0  0
    7.2305   -0.6898   20.7785 N   0  0  0  0  0  0  0  0  0  0  0  0
    8.6625    1.0133   24.4989 N   0  0  3  0  0  0  0  0  0  0  0  0
    6.1278   -2.7641   21.0978 O   0  0  0  0  0  0  0  0  0  0  0  0
    8.7876    1.0636   21.1042 O   0  0  0  0  0  0  0  0  0  0  0  0
    6.4462    2.2383   25.0279 O   0  0  0  0  0  0  0  0  0  0  0  0
    8.6207    3.1162   25.9692 O   0  0  0  0  0  0  0  0  0  0  0  0
    7.7721    2.0172   25.5629 S   0  0  0  0  0  0  0  0  0  0  0  0
   13.4281   -2.1413   21.1075 Cl  0  0  0  0  0  0  0  0  0  0  0  0
    2.5443    3.3508   20.6368 H   0  0  0  0  0  0  0  0  0  0  0  0
    3.5189    2.1137   22.5166 H   0  0  0  0  0  0  0  0  0  0  0  0
    3.3421    2.9744   18.3363 H   0  0  0  0  0  0  0  0  0  0  0  0
    5.3131    0.4893   22.1569 H   0  0  0  0  0  0  0  0  0  0  0  0
   12.5033    0.5990   24.9731 H   0  0  0  0  0  0  0  0  0  0  0  0
   13.9927   -0.5163   23.3772 H   0  0  0  0  0  0  0  0  0  0  0  0
   10.6046   -2.0171   21.2240 H   0  0  0  0  0  0  0  0  0  0  0  0
    4.9151    1.7511   16.7471 H   0  0  0  0  0  0  0  0  0  0  0  0
    7.6455   -0.9765   18.1038 H   0  0  0  0  0  0  0  0  0  0  0  0
    9.7870   -0.1182   25.8313 H   0  0  0  0  0  0  0  0  0  0  0  0
   10.4819    1.4567   25.3600 H   0  0  0  0  0  0  0  0  0  0  0  0
    7.4971   -2.5660   23.3076 H   0  0  0  0  0  0  0  0  0  0  0  0
    8.7603   -2.8852   22.0975 H   0  0  0  0  0  0  0  0  0  0  0  0
    5.4853    0.4400   29.6723 H   0  0  0  0  0  0  0  0  0  0  0  0
    6.2004   -0.8147   28.5720 H   0  0  0  0  0  0  0  0  0  0  0  0
    4.9708    0.1867   26.6326 H   0  0  0  0  0  0  0  0  0  0  0  0
    4.2564    1.4407   27.7340 H   0  0  0  0  0  0  0  0  0  0  0  0
    6.8902    0.2649   23.5578 H   0  0  0  0  0  0  0  0  0  0  0  0
    7.6651   -0.8635   24.6741 H   0  0  0  0  0  0  0  0  0  0  0  0
    7.4717   -0.1009   26.5175 H   0  0  0  0  0  0  0  0  0  0  0  0
    8.5874    0.9139   27.4619 H   0  0  0  0  0  0  0  0  0  0  0  0
  1 24  1  0  0  0  0
  1 27  3  0  0  0  0
  2  3  2  0  0  0  0
  2  4  1  0  0  0  0
  3  5  1  0  0  0  0
  4 11  2  0  0  0  0
  5 12  2  0  0  0  0
  6  7  2  0  0  0  0
  6 13  1  0  0  0  0
  7 16  1  0  0  0  0
  8 14  1  0  0  0  0
  8 16  2  0  0  0  0
  9 11  1  0  0  0  0
  9 28  2  0  0  0  0
 10 15  2  0  0  0  0
 10 28  1  0  0  0  0
 11 12  1  0  0  0  0
 12 15  1  0  0  0  0
 13 14  2  0  0  0  0
 13 19  1  0  0  0  0
 14 25  1  1  0  0  0
 15 29  1  0  0  0  0
 16 36  1  0  0  0  0
 17 20  1  0  0  0  0
 17 29  1  0  0  0  0
 17 31  2  0  0  0  0
 18 25  1  6  0  0  0
 18 29  1  0  0  0  0
 18 32  2  0  0  0  0
 19 30  1  0  0  0  0
 20 25  1  6  0  0  0
 21 22  1  0  0  0  0
 21 24  1  0  0  0  0
 22 24  1  0  0  0  0
 23 25  1  1  0  0  0
 23 30  1  0  0  0  0
 24 26  1  0  0  0  0
 26 35  1  0  0  0  0
 30 35  1  0  0  0  0
 33 35  2  0  0  0  0
 34 35  2  0  0  0  0
  2 37  1  0  0  0  0
  3 38  1  0  0  0  0
  4 39  1  0  0  0  0
  5 40  1  0  0  0  0
  6 41  1  0  0  0  0
  7 42  1  0  0  0  0
  8 43  1  0  0  0  0
  9 44  1  0  0  0  0
 10 45  1  0  0  0  0
 19 46  1  0  0  0  0
 19 47  1  0  0  0  0
 20 48  1  0  0  0  0
 20 49  1  0  0  0  0
 21 50  1  0  0  0  0
 21 51  1  0  0  0  0
 22 52  1  0  0  0  0
 22 53  1  0  0  0  0
 23 54  1  0  0  0  0
 23 55  1  0  0  0  0
 26 56  1  0  0  0  0
 26 57  1  0  0  0  0
M  END
> <scaffold>
tetrahydroisoquinoline-5spiro-isoquinoline

> <compound>
LUO-POS-868e8996-10

> <compound_smiles>
c1ccc2c(c1)cncc2N3C(=O)C[C@]4(C3=O)CN(Cc5c4cc(cc5)Cl)S(=O)(=O)CC6(CC6)C#N

> <enantiomer_smiles>
c1ccc2c(c1)cncc2N3C(=O)C[C@]4(C3=O)C[N@](Cc5c4cc(cc5)Cl)S(=O)(=O)CC6(CC6)C#N

> <clash_score>
0

> <docking_score>
3.4028234663852886e+38

> <overlap_score>
1.0

> <MMFF_internal_energy>
79.82776226785312

> <docked_smiles>
c1ccc2c(c1)cncc2N3C(=O)C[C@]4(C3=O)C[N@](Cc5c4cc(cc5)Cl)S(=O)(=O)CC6(CC6)C#N

$$$$
MAT-POS-be048f2c-5_1
  -OEChem-01042202313D

 59 64  0     1  0  0  0  0  0999 V2000
    3.3444    2.6278   20.4409 C   0  0  0  0  0  0  0  0  0  0  0  0
    3.8974    1.9290   21.5048 C   0  0  0  0  0  0  0  0  0  0  0  0
    3.7877    2.4205   19.1658 C   0  0  0  0  0  0  0  0  0  0  0  0
    4.8986    1.0232   21.2985 C   0  0  0  0  0  0  0  0  0  0  0  0
   12.0781    0.0316   24.1532 C   0  0  0  0  0  0  0  0  0  0  0  0
   12.9147   -0.6032   23.2559 C   0  0  0  0  0  0  0  0  0  0  0  0
    9.0936    3.7970   26.3391 C   0  0  0  0  0  0  0  0  0  0  0  0
   11.0005   -1.4332   22.0435 C   0  0  0  0  0  0  0  0  0  0  0  0
   10.0595    4.8198   26.2869 C   0  0  0  0  0  0  0  0  0  0  0  0
    5.3288    1.2339   17.6062 C   0  0  0  0  0  0  0  0  0  0  0  0
    6.8449   -0.2893   18.3747 C   0  0  0  0  0  0  0  0  0  0  0  0
    4.8238    1.4906   18.9051 C   0  0  0  0  0  0  0  0  0  0  0  0
    5.3995    0.7732   19.9944 C   0  0  0  0  0  0  0  0  0  0  0  0
   10.7056   -0.0626   23.9890 C   0  0  0  0  0  0  0  0  0  0  0  0
   10.1421   -0.7766   22.9242 C   0  0  0  0  0  0  0  0  0  0  0  0
    6.4452   -0.1472   19.6975 C   0  0  0  0  0  0  0  0  0  0  0  0
   12.3697   -1.3298   22.2224 C   0  0  0  0  0  0  0  0  0  0  0  0
    9.0025    3.3443   25.0456 C   0  0  0  0  0  0  0  0  0  0  0  0
    8.2504    0.0168   21.4265 C   0  0  0  0  0  0  0  0  0  0  0  0
    8.1479    2.2775   24.5039 C   0  0  0  0  0  0  0  0  0  0  0  0
    9.9496    0.5589   24.9527 C   0  0  0  0  0  0  0  0  0  0  0  0
    8.0155   -2.1541   22.4325 C   0  0  0  0  0  0  0  0  0  0  0  0
    6.9880   -1.9367   21.3575 C   0  0  0  0  0  0  0  0  0  0  0  0
    7.8737   -0.1194   23.8825 C   0  0  0  0  0  0  0  0  0  0  0  0
    8.6253   -0.7606   22.6923 C   0  0  3  0  0  0  0  0  0  0  0  0
    9.4851    5.1035   22.1170 C   0  0  0  0  0  0  0  0  0  0  0  0
   10.1552    3.9943   22.9097 C   0  0  0  0  0  0  0  0  0  0  0  0
    6.3072    0.3768   17.3417 N   0  0  0  0  0  0  0  0  0  0  0  0
   10.5473    5.0060   25.0576 N   0  0  0  0  0  0  0  0  0  0  0  0
    9.8853    4.0941   24.3253 N   0  0  0  0  0  0  0  0  0  0  0  0
    7.2305   -0.6898   20.7785 N   0  0  0  0  0  0  0  0  0  0  0  0
    8.6625    1.0133   24.4989 N   0  0  0  0  0  0  0  0  0  0  0  0
    8.7600    1.0855   21.1262 O   0  0  0  0  0  0  0  0  0  0  0  0
    7.0365    2.6212   24.1037 O   0  0  0  0  0  0  0  0  0  0  0  0
   13.4297   -2.1471   21.1135 Cl  0  0  0  0  0  0  0  0  0  0  0  0
    2.5443    3.3508   20.6368 H   0  0  0  0  0  0  0  0  0  0  0  0
    3.5189    2.1137   22.5166 H   0  0  0  0  0  0  0  0  0  0  0  0
    3.3421    2.9744   18.3363 H   0  0  0  0  0  0  0  0  0  0  0  0
    5.3131    0.4893   22.1569 H   0  0  0  0  0  0  0  0  0  0  0  0
   12.5054    0.5873   24.9795 H   0  0  0  0  0  0  0  0  0  0  0  0
   13.9928   -0.5292   23.3862 H   0  0  0  0  0  0  0  0  0  0  0  0
    8.5438    3.4413   27.1986 H   0  0  0  0  0  0  0  0  0  0  0  0
   10.6151   -2.0340   21.2349 H   0  0  0  0  0  0  0  0  0  0  0  0
   10.4287    5.4370   27.0934 H   0  0  0  0  0  0  0  0  0  0  0  0
    4.9151    1.7511   16.7471 H   0  0  0  0  0  0  0  0  0  0  0  0
    7.6455   -0.9765   18.1038 H   0  0  0  0  0  0  0  0  0  0  0  0
    9.7850   -0.0928   25.8506 H   0  0  0  0  0  0  0  0  0  0  0  0
   10.4594    1.4725   25.3577 H   0  0  0  0  0  0  0  0  0  0  0  0
    7.5133   -2.5697   23.3190 H   0  0  0  0  0  0  0  0  0  0  0  0
    8.7734   -2.8987   22.1394 H   0  0  0  0  0  0  0  0  0  0  0  0
    7.0532   -2.7254   20.5703 H   0  0  0  0  0  0  0  0  0  0  0  0
    5.9526   -1.9949   21.7726 H   0  0  0  0  0  0  0  0  0  0  0  0
    6.9275    0.3346   23.5578 H   0  0  0  0  0  0  0  0  0  0  0  0
    7.6195   -0.8485   24.6559 H   0  0  0  0  0  0  0  0  0  0  0  0
    8.3982    5.0838   22.2499 H   0  0  0  0  0  0  0  0  0  0  0  0
    9.7006    4.9907   21.0500 H   0  0  0  0  0  0  0  0  0  0  0  0
    9.8424    6.0884   22.4355 H   0  0  0  0  0  0  0  0  0  0  0  0
   11.2418    4.0222   22.7704 H   0  0  0  0  0  0  0  0  0  0  0  0
    9.8087    3.0122   22.5685 H   0  0  0  0  0  0  0  0  0  0  0  0
  1  2  2  0  0  0  0
  1  3  1  0  0  0  0
  2  4  1  0  0  0  0
  3 12  2  0  0  0  0
  4 13  2  0  0  0  0
  5  6  2  0  0  0  0
  5 14  1  0  0  0  0
  6 17  1  0  0  0  0
  7  9  1  0  0  0  0
  7 18  2  0  0  0  0
  8 15  1  0  0  0  0
  8 17  2  0  0  0  0
  9 29  2  0  0  0  0
 10 12  1  0  0  0  0
 10 28  2  0  0  0  0
 11 16  2  0  0  0  0
 11 28  1  0  0  0  0
 12 13  1  0  0  0  0
 13 16  1  0  0  0  0
 14 15  2  0  0  0  0
 14 21  1  0  0  0  0
 15 25  1  0  0  0  0
 16 31  1  0  0  0  0
 17 35  1  0  0  0  0
 18 20  1  0  0  0  0
 18 30  1  0  0  0  0
 19 25  1  0  0  0  0
 19 31  1  0  0  0  0
 19 33  2  0  0  0  0
 20 32  1  0  0  0  0
 20 34  2  0  0  0  0
 21 32  1  0  0  0  0
 22 23  1  0  0  0  0
 22 25  1  0  0  0  0
 23 31  1  0  0  0  0
 24 25  1  0  0  0  0
 24 32  1  0  0  0  0
 26 27  1  0  0  0  0
 27 30  1  0  0  0  0
 29 30  1  0  0  0  0
  1 36  1  0  0  0  0
  2 37  1  0  0  0  0
  3 38  1  0  0  0  0
  4 39  1  0  0  0  0
  5 40  1  0  0  0  0
  6 41  1  0  0  0  0
  7 42  1  0  0  0  0
  8 43  1  0  0  0  0
  9 44  1  0  0  0  0
 10 45  1  0  0  0  0
 11 46  1  0  0  0  0
 21 47  1  0  0  0  0
 21 48  1  0  0  0  0
 22 49  1  0  0  0  0
 22 50  1  0  0  0  0
 23 51  1  0  0  0  0
 23 52  1  0  0  0  0
 24 53  1  0  0  0  0
 24 54  1  0  0  0  0
 26 55  1  0  0  0  0
 26 56  1  0  0  0  0
 26 57  1  0  0  0  0
 27 58  1  0  0  0  0
 27 59  1  0  0  0  0
M  END
> <scaffold>
tetrahydroisoquinoline-5spiro-isoquinoline

> <compound>
MAT-POS-be048f2c-5

> <compound_smiles>
CCn1c(ccn1)C(=O)N2Cc3ccc(cc3C4(C2)CCN(C4=O)c5cncc6c5cccc6)Cl

> <enantiomer_smiles>
CCn1c(ccn1)C(=O)N2Cc3ccc(cc3[C@@]4(C2)CCN(C4=O)c5cncc6c5cccc6)Cl

> <clash_score>
1.9310642189238347

> <docking_score>
3.4028234663852886e+38

> <overlap_score>
0.9727544188499451

> <MMFF_internal_energy>
118.94707131357737

> <docked_smiles>
CCn1c(ccn1)C(=O)N2Cc3ccc(cc3[C@@]4(C2)CCN(C4=O)c5cncc6c5cccc6)Cl

$$$$
EDJ-MED-9f4ac58c-2_1
  -OEChem-01042202313D

 57 62  0     1  0  0  0  0  0999 V2000
    6.8705    3.9140   27.5312 C   0  0  0  0  0  0  0  0  0  0  0  0
    3.3444    2.6278   20.4409 C   0  0  0  0  0  0  0  0  0  0  0  0
    3.8974    1.9290   21.5048 C   0  0  0  0  0  0  0  0  0  0  0  0
    3.7877    2.4205   19.1658 C   0  0  0  0  0  0  0  0  0  0  0  0
    4.8986    1.0232   21.2985 C   0  0  0  0  0  0  0  0  0  0  0  0
   12.0781    0.0316   24.1532 C   0  0  0  0  0  0  0  0  0  0  0  0
   12.9147   -0.6032   23.2559 C   0  0  0  0  0  0  0  0  0  0  0  0
   11.0005   -1.4332   22.0435 C   0  0  0  0  0  0  0  0  0  0  0  0
    5.3288    1.2339   17.6062 C   0  0  0  0  0  0  0  0  0  0  0  0
    6.8449   -0.2893   18.3747 C   0  0  0  0  0  0  0  0  0  0  0  0
    4.8238    1.4906   18.9051 C   0  0  0  0  0  0  0  0  0  0  0  0
    5.3995    0.7732   19.9944 C   0  0  0  0  0  0  0  0  0  0  0  0
   10.7056   -0.0626   23.9890 C   0  0  0  0  0  0  0  0  0  0  0  0
   10.1421   -0.7766   22.9242 C   0  0  0  0  0  0  0  0  0  0  0  0
    6.4452   -0.1472   19.6975 C   0  0  0  0  0  0  0  0  0  0  0  0
   12.3697   -1.3298   22.2224 C   0  0  0  0  0  0  0  0  0  0  0  0
    9.9496    0.5589   24.9527 C   0  0  0  0  0  0  0  0  0  0  0  0
    8.2504    0.0168   21.4265 C   0  0  0  0  0  0  0  0  0  0  0  0
    4.9104    2.3441   27.7528 C   0  0  0  0  0  0  0  0  0  0  0  0
    4.7677    3.0537   26.4388 C   0  0  0  0  0  0  0  0  0  0  0  0
    8.0155   -2.1541   22.4325 C   0  0  0  0  0  0  0  0  0  0  0  0
    6.9880   -1.9367   21.3575 C   0  0  0  0  0  0  0  0  0  0  0  0
    7.8737   -0.1194   23.8825 C   0  0  0  0  0  0  0  0  0  0  0  0
    6.1458    2.7877   27.0020 C   0  0  0  0  0  0  0  0  0  0  0  0
    8.6253   -0.7606   22.6923 C   0  0  3  0  0  0  0  0  0  0  0  0
    6.9941    1.7268   26.3371 C   0  0  0  0  0  0  0  0  0  0  0  0
    7.4544    4.8215   27.9576 N   0  0  0  0  0  0  0  0  0  0  0  0
    6.3072    0.3768   17.3417 N   0  0  0  0  0  0  0  0  0  0  0  0
    7.2305   -0.6898   20.7785 N   0  0  0  0  0  0  0  0  0  0  0  0
    8.6625    1.0133   24.4989 N   0  0  0  0  0  0  0  0  0  0  0  0
   10.3166    0.7434   26.1217 O   0  0  0  0  0  0  0  0  0  0  0  0
    8.8196    1.0408   21.0766 O   0  0  0  0  0  0  0  0  0  0  0  0
    6.9311    2.7494   23.9334 O   0  0  0  0  0  0  0  0  0  0  0  0
    8.8702    3.3156   25.4517 O   0  0  0  0  0  0  0  0  0  0  0  0
    7.8873    2.3819   24.9522 S   0  0  0  0  0  0  0  0  0  0  0  0
   13.4293   -2.1466   21.1128 Cl  0  0  0  0  0  0  0  0  0  0  0  0
    2.5443    3.3508   20.6368 H   0  0  0  0  0  0  0  0  0  0  0  0
    3.5189    2.1137   22.5166 H   0  0  0  0  0  0  0  0  0  0  0  0
    3.3421    2.9744   18.3363 H   0  0  0  0  0  0  0  0  0  0  0  0
    5.3131    0.4893   22.1569 H   0  0  0  0  0  0  0  0  0  0  0  0
   12.5191    0.5957   24.9706 H   0  0  0  0  0  0  0  0  0  0  0  0
   13.9921   -0.5215   23.3809 H   0  0  0  0  0  0  0  0  0  0  0  0
   10.6170   -2.0260   21.2272 H   0  0  0  0  0  0  0  0  0  0  0  0
    4.9151    1.7511   16.7471 H   0  0  0  0  0  0  0  0  0  0  0  0
    7.6455   -0.9765   18.1038 H   0  0  0  0  0  0  0  0  0  0  0  0
    4.6181    2.8815   28.6480 H   0  0  0  0  0  0  0  0  0  0  0  0
    4.6731    1.2869   27.7817 H   0  0  0  0  0  0  0  0  0  0  0  0
    4.4338    2.4717   25.5875 H   0  0  0  0  0  0  0  0  0  0  0  0
    4.3790    4.0656   26.4549 H   0  0  0  0  0  0  0  0  0  0  0  0
    7.5124   -2.5282   23.3379 H   0  0  0  0  0  0  0  0  0  0  0  0
    8.7585   -2.9105   22.1421 H   0  0  0  0  0  0  0  0  0  0  0  0
    7.0610   -2.7257   20.5719 H   0  0  0  0  0  0  0  0  0  0  0  0
    5.9524   -1.9968   21.7699 H   0  0  0  0  0  0  0  0  0  0  0  0
    6.8990    0.2933   23.5632 H   0  0  0  0  0  0  0  0  0  0  0  0
    7.6456   -0.8834   24.6465 H   0  0  0  0  0  0  0  0  0  0  0  0
    6.3739    0.9078   25.9624 H   0  0  0  0  0  0  0  0  0  0  0  0
    7.7323    1.3219   27.0346 H   0  0  0  0  0  0  0  0  0  0  0  0
  1 24  1  0  0  0  0
  1 27  3  0  0  0  0
  2  3  2  0  0  0  0
  2  4  1  0  0  0  0
  3  5  1  0  0  0  0
  4 11  2  0  0  0  0
  5 12  2  0  0  0  0
  6  7  2  0  0  0  0
  6 13  1  0  0  0  0
  7 16  1  0  0  0  0
  8 14  1  0  0  0  0
  8 16  2  0  0  0  0
  9 11  1  0  0  0  0
  9 28  2  0  0  0  0
 10 15  2  0  0  0  0
 10 28  1  0  0  0  0
 11 12  1  0  0  0  0
 12 15  1  0  0  0  0
 13 14  2  0  0  0  0
 13 17  1  0  0  0  0
 14 25  1  0  0  0  0
 15 29  1  0  0  0  0
 16 36  1  0  0  0  0
 17 30  1  0  0  0  0
 17 31  2  0  0  0  0
 18 25  1  0  0  0  0
 18 29  1  0  0  0  0
 18 32  2  0  0  0  0
 19 20  1  0  0  0  0
 19 24  1  0  0  0  0
 20 24  1  0  0  0  0
 21 22  1  0  0  0  0
 21 25  1  0  0  0  0
 22 29  1  0  0  0  0
 23 25  1  0  0  0  0
 23 30  1  0  0  0  0
 24 26  1  0  0  0  0
 26 35  1  0  0  0  0
 30 35  1  0  0  0  0
 33 35  2  0  0  0  0
 34 35  2  0  0  0  0
  2 37  1  0  0  0  0
  3 38  1  0  0  0  0
  4 39  1  0  0  0  0
  5 40  1  0  0  0  0
  6 41  1  0  0  0  0
  7 42  1  0  0  0  0
  8 43  1  0  0  0  0
  9 44  1  0  0  0  0
 10 45  1  0  0  0  0
 19 46  1  0  0  0  0
 19 47  1  0  0  0  0
 20 48  1  0  0  0  0
 20 49  1  0  0  0  0
 21 50  1  0  0  0  0
 21 51  1  0  0  0  0
 22 52  1  0  0  0  0
 22 53  1  0  0  0  0
 23 54  1  0  0  0  0
 23 55  1  0  0  0  0
 26 56  1  0  0  0  0
 26 57  1  0  0  0  0
M  END
> <scaffold>
tetrahydroisoquinoline-5spiro-isoquinoline

> <compound>
EDJ-MED-9f4ac58c-2

> <compound_smiles>
c1ccc2c(c1)cncc2N3CCC4(C3=O)CN(C(=O)c5c4cc(cc5)Cl)S(=O)(=O)CC6(CC6)C#N

> <enantiomer_smiles>
c1ccc2c(c1)cncc2N3CC[C@@]4(C3=O)CN(C(=O)c5c4cc(cc5)Cl)S(=O)(=O)CC6(CC6)C#N

> <clash_score>
0

> <docking_score>
3.4028234663852886e+38

> <overlap_score>
0.9815032482147217

> <MMFF_internal_energy>
95.4151588932488

> <docked_smiles>
c1ccc2c(c1)cncc2N3CC[C@@]4(C3=O)CN(C(=O)c5c4cc(cc5)Cl)S(=O)(=O)CC6(CC6)C#N

$$$$
MAT-POS-853c0ffa-18_1
  -OEChem-01042202313D

 60 65  0     1  0  0  0  0  0999 V2000
   12.0781    0.0316   24.1532 C   0  0  0  0  0  0  0  0  0  0  0  0
   12.9147   -0.6032   23.2559 C   0  0  0  0  0  0  0  0  0  0  0  0
    3.7877    2.4205   19.1658 C   0  0  0  0  0  0  0  0  0  0  0  0
   11.0005   -1.4332   22.0435 C   0  0  0  0  0  0  0  0  0  0  0  0
    3.8974    1.9290   21.5048 C   0  0  0  0  0  0  0  0  0  0  0  0
    5.3288    1.2339   17.6062 C   0  0  0  0  0  0  0  0  0  0  0  0
    6.8449   -0.2893   18.3747 C   0  0  0  0  0  0  0  0  0  0  0  0
    4.8238    1.4906   18.9051 C   0  0  0  0  0  0  0  0  0  0  0  0
    5.3995    0.7732   19.9944 C   0  0  0  0  0  0  0  0  0  0  0  0
   10.7056   -0.0626   23.9890 C   0  0  0  0  0  0  0  0  0  0  0  0
   10.1421   -0.7766   22.9242 C   0  0  0  0  0  0  0  0  0  0  0  0
    6.4452   -0.1472   19.6975 C   0  0  0  0  0  0  0  0  0  0  0  0
    3.3444    2.6278   20.4409 C   0  0  0  0  0  0  0  0  0  0  0  0
   12.3697   -1.3298   22.2224 C   0  0  0  0  0  0  0  0  0  0  0  0
    4.8986    1.0232   21.2985 C   0  0  0  0  0  0  0  0  0  0  0  0
    8.2504    0.0168   21.4265 C   0  0  0  0  0  0  0  0  0  0  0  0
    9.9496    0.5589   24.9527 C   0  0  0  0  0  0  0  0  0  0  0  0
    7.0144    3.7993   28.0281 C   0  0  0  0  0  0  0  0  0  0  0  0
    6.0584    2.7767   28.5726 C   0  0  0  0  0  0  0  0  0  0  0  0
    8.0155   -2.1541   22.4325 C   0  0  0  0  0  0  0  0  0  0  0  0
    6.9880   -1.9367   21.3575 C   0  0  0  0  0  0  0  0  0  0  0  0
    7.8737   -0.1194   23.8825 C   0  0  0  0  0  0  0  0  0  0  0  0
    8.6253   -0.7606   22.6923 C   0  0  3  0  0  0  0  0  0  0  0  0
    6.2729    2.8850   27.0810 C   0  0  0  0  0  0  0  0  0  0  0  0
    5.1672    3.4766   26.2507 C   0  0  0  0  0  0  0  0  0  0  0  0
    7.0560    1.7877   26.3958 C   0  0  0  0  0  0  0  0  0  0  0  0
    6.3072    0.3768   17.3417 N   0  0  0  0  0  0  0  0  0  0  0  0
    7.2305   -0.6898   20.7785 N   0  0  0  0  0  0  0  0  0  0  0  0
    8.6625    1.0133   24.4989 N   0  0  3  0  0  0  0  0  0  0  0  0
    8.7514    1.0901   21.1243 O   0  0  0  0  0  0  0  0  0  0  0  0
    6.9865    2.7904   23.9840 O   0  0  0  0  0  0  0  0  0  0  0  0
    8.9572    3.3243   25.4729 O   0  0  0  0  0  0  0  0  0  0  0  0
    2.3589    3.5182   20.6800 F   0  0  0  0  0  0  0  0  0  0  0  0
    7.9493    2.4047   24.9925 S   0  0  0  0  0  0  0  0  0  0  0  0
   13.4297   -2.1462   21.1126 Cl  0  0  0  0  0  0  0  0  0  0  0  0
    5.4655    0.2476   22.7519 Cl  0  0  0  0  0  0  0  0  0  0  0  0
   12.5046    0.5852   24.9818 H   0  0  0  0  0  0  0  0  0  0  0  0
   13.9930   -0.5302   23.3869 H   0  0  0  0  0  0  0  0  0  0  0  0
    3.3411    2.9749   18.3372 H   0  0  0  0  0  0  0  0  0  0  0  0
   10.6139   -2.0326   21.2341 H   0  0  0  0  0  0  0  0  0  0  0  0
    3.4997    2.1315   22.5075 H   0  0  0  0  0  0  0  0  0  0  0  0
    4.9146    1.7513   16.7474 H   0  0  0  0  0  0  0  0  0  0  0  0
    7.6468   -0.9738   18.1001 H   0  0  0  0  0  0  0  0  0  0  0  0
    9.7590   -0.1307   25.8193 H   0  0  0  0  0  0  0  0  0  0  0  0
   10.4971    1.4368   25.3930 H   0  0  0  0  0  0  0  0  0  0  0  0
    6.7203    4.8409   28.0809 H   0  0  0  0  0  0  0  0  0  0  0  0
    8.0732    3.6333   28.1877 H   0  0  0  0  0  0  0  0  0  0  0  0
    6.4772    1.9259   29.0970 H   0  0  0  0  0  0  0  0  0  0  0  0
    5.1243    3.1335   28.9902 H   0  0  0  0  0  0  0  0  0  0  0  0
    7.5139   -2.5724   23.3172 H   0  0  0  0  0  0  0  0  0  0  0  0
    8.7710   -2.8991   22.1377 H   0  0  0  0  0  0  0  0  0  0  0  0
    7.0576   -2.7256   20.5712 H   0  0  0  0  0  0  0  0  0  0  0  0
    5.9526   -1.9955   21.7714 H   0  0  0  0  0  0  0  0  0  0  0  0
    6.8959    0.2848   23.5662 H   0  0  0  0  0  0  0  0  0  0  0  0
    7.6721   -0.8632   24.6716 H   0  0  0  0  0  0  0  0  0  0  0  0
    4.7092    2.7153   25.6073 H   0  0  0  0  0  0  0  0  0  0  0  0
    5.5465    4.2793   25.6067 H   0  0  0  0  0  0  0  0  0  0  0  0
    4.3802    3.8981   26.8881 H   0  0  0  0  0  0  0  0  0  0  0  0
    6.3903    0.9996   26.0331 H   0  0  0  0  0  0  0  0  0  0  0  0
    7.7894    1.3466   27.0764 H   0  0  0  0  0  0  0  0  0  0  0  0
  1  2  2  0  0  0  0
  1 10  1  0  0  0  0
  2 14  1  0  0  0  0
  3  8  2  0  0  0  0
  3 13  1  0  0  0  0
  4 11  1  0  0  0  0
  4 14  2  0  0  0  0
  5 13  2  0  0  0  0
  5 15  1  0  0  0  0
  6  8  1  0  0  0  0
  6 27  2  0  0  0  0
  7 12  2  0  0  0  0
  7 27  1  0  0  0  0
  8  9  1  0  0  0  0
  9 12  1  0  0  0  0
  9 15  2  0  0  0  0
 10 11  2  0  0  0  0
 10 17  1  0  0  0  0
 11 23  1  0  0  0  0
 12 28  1  0  0  0  0
 13 33  1  0  0  0  0
 14 35  1  0  0  0  0
 15 36  1  0  0  0  0
 16 23  1  0  0  0  0
 16 28  1  0  0  0  0
 16 30  2  0  0  0  0
 17 29  1  0  0  0  0
 18 19  1  0  0  0  0
 18 24  1  0  0  0  0
 19 24  1  0  0  0  0
 20 21  1  0  0  0  0
 20 23  1  0  0  0  0
 21 28  1  0  0  0  0
 22 23  1  0  0  0  0
 22 29  1  0  0  0  0
 24 25  1  0  0  0  0
 24 26  1  0  0  0  0
 26 34  1  0  0  0  0
 29 34  1  0  0  0  0
 31 34  2  0  0  0  0
 32 34  2  0  0  0  0
  1 37  1  0  0  0  0
  2 38  1  0  0  0  0
  3 39  1  0  0  0  0
  4 40  1  0  0  0  0
  5 41  1  0  0  0  0
  6 42  1  0  0  0  0
  7 43  1  0  0  0  0
 17 44  1  0  0  0  0
 17 45  1  0  0  0  0
 18 46  1  0  0  0  0
 18 47  1  0  0  0  0
 19 48  1  0  0  0  0
 19 49  1  0  0  0  0
 20 50  1  0  0  0  0
 20 51  1  0  0  0  0
 21 52  1  0  0  0  0
 21 53  1  0  0  0  0
 22 54  1  0  0  0  0
 22 55  1  0  0  0  0
 25 56  1  0  0  0  0
 25 57  1  0  0  0  0
 25 58  1  0  0  0  0
 26 59  1  0  0  0  0
 26 60  1  0  0  0  0
M  END
> <scaffold>
tetrahydroisoquinoline-5spiro-isoquinoline

> <compound>
MAT-POS-853c0ffa-18

> <compound_smiles>
CC1(CC1)CS(=O)(=O)N2Cc3ccc(cc3C4(C2)CCN(C4=O)c5cncc6c5c(cc(c6)F)Cl)Cl

> <enantiomer_smiles>
CC1(CC1)CS(=O)(=O)[N@@]2Cc3ccc(cc3[C@@]4(C2)CCN(C4=O)c5cncc6c5c(cc(c6)F)Cl)Cl

> <clash_score>
0

> <docking_score>
3.4028234663852886e+38

> <overlap_score>
0.988842248916626

> <MMFF_internal_energy>
207.47590124948636

> <docked_smiles>
CC1(CC1)CS(=O)(=O)[N@@]2Cc3ccc(cc3[C@@]4(C2)CCN(C4=O)c5cncc6c5c(cc(c6)F)Cl)Cl

$$$$
PET-UNK-94036022-2_1
  -OEChem-01042202313D

 59 64  0     1  0  0  0  0  0999 V2000
    9.3508    6.2566   22.8283 C   0  0  0  0  0  0  0  0  0  0  0  0
    8.6658    5.6513   23.6063 C   0  0  0  0  0  0  0  0  0  0  0  0
    3.3444    2.6278   20.4409 C   0  0  0  0  0  0  0  0  0  0  0  0
    3.8974    1.9290   21.5048 C   0  0  0  0  0  0  0  0  0  0  0  0
    3.7877    2.4205   19.1658 C   0  0  0  0  0  0  0  0  0  0  0  0
    4.8986    1.0232   21.2985 C   0  0  0  0  0  0  0  0  0  0  0  0
   12.0781    0.0316   24.1532 C   0  0  0  0  0  0  0  0  0  0  0  0
   12.9147   -0.6032   23.2559 C   0  0  0  0  0  0  0  0  0  0  0  0
   11.0005   -1.4332   22.0435 C   0  0  0  0  0  0  0  0  0  0  0  0
    5.3288    1.2339   17.6062 C   0  0  0  0  0  0  0  0  0  0  0  0
    6.8449   -0.2893   18.3747 C   0  0  0  0  0  0  0  0  0  0  0  0
    4.8238    1.4906   18.9051 C   0  0  0  0  0  0  0  0  0  0  0  0
    5.3995    0.7732   19.9944 C   0  0  0  0  0  0  0  0  0  0  0  0
   10.7056   -0.0626   23.9890 C   0  0  0  0  0  0  0  0  0  0  0  0
   10.1421   -0.7766   22.9242 C   0  0  0  0  0  0  0  0  0  0  0  0
    6.4452   -0.1472   19.6975 C   0  0  0  0  0  0  0  0  0  0  0  0
   12.3697   -1.3298   22.2224 C   0  0  0  0  0  0  0  0  0  0  0  0
    8.2504    0.0168   21.4265 C   0  0  0  0  0  0  0  0  0  0  0  0
    9.9496    0.5589   24.9527 C   0  0  0  0  0  0  0  0  0  0  0  0
    7.0423    5.7352   25.5333 C   0  0  0  0  0  0  0  0  0  0  0  0
    6.3445    5.0581   24.3908 C   0  0  0  0  0  0  0  0  0  0  0  0
    8.0155   -2.1541   22.4325 C   0  0  0  0  0  0  0  0  0  0  0  0
    6.9880   -1.9367   21.3575 C   0  0  0  0  0  0  0  0  0  0  0  0
    7.8737   -0.1194   23.8825 C   0  0  0  0  0  0  0  0  0  0  0  0
    7.8437    4.9249   24.5392 C   0  0  0  0  0  0  0  0  0  0  0  0
    8.6253   -0.7606   22.6923 C   0  0  2  0  0  0  0  0  0  0  0  0
    8.3989    3.5924   24.9901 C   0  0  0  0  0  0  0  0  0  0  0  0
    6.3072    0.3768   17.3417 N   0  0  0  0  0  0  0  0  0  0  0  0
    7.2305   -0.6898   20.7785 N   0  0  0  0  0  0  0  0  0  0  0  0
    8.6625    1.0133   24.4989 N   0  0  3  0  0  0  0  0  0  0  0  0
    8.7590    1.0938   21.1339 O   0  0  0  0  0  0  0  0  0  0  0  0
    7.4185    2.5202   22.8183 O   0  0  0  0  0  0  0  0  0  0  0  0
    9.9256    2.7344   23.0508 O   0  0  0  0  0  0  0  0  0  0  0  0
    8.6205    2.4836   23.6226 S   0  0  0  0  0  0  0  0  0  0  0  0
   13.4282   -2.1430   21.1088 Cl  0  0  0  0  0  0  0  0  0  0  0  0
    9.9587    6.7937   22.1383 H   0  0  0  0  0  0  0  0  0  0  0  0
    2.5443    3.3508   20.6368 H   0  0  0  0  0  0  0  0  0  0  0  0
    3.5189    2.1137   22.5166 H   0  0  0  0  0  0  0  0  0  0  0  0
    3.3421    2.9744   18.3363 H   0  0  0  0  0  0  0  0  0  0  0  0
    5.3131    0.4893   22.1569 H   0  0  0  0  0  0  0  0  0  0  0  0
   12.5037    0.5936   24.9766 H   0  0  0  0  0  0  0  0  0  0  0  0
   13.9925   -0.5222   23.3811 H   0  0  0  0  0  0  0  0  0  0  0  0
   10.6052   -2.0226   21.2278 H   0  0  0  0  0  0  0  0  0  0  0  0
    4.9151    1.7511   16.7471 H   0  0  0  0  0  0  0  0  0  0  0  0
    7.6455   -0.9765   18.1038 H   0  0  0  0  0  0  0  0  0  0  0  0
    9.7611   -0.1282   25.8170 H   0  0  0  0  0  0  0  0  0  0  0  0
   10.4950    1.4394   25.3807 H   0  0  0  0  0  0  0  0  0  0  0  0
    7.1131    6.8168   25.5083 H   0  0  0  0  0  0  0  0  0  0  0  0
    6.8883    5.3310   26.5271 H   0  0  0  0  0  0  0  0  0  0  0  0
    5.7222    4.2006   24.6197 H   0  0  0  0  0  0  0  0  0  0  0  0
    5.9477    5.6870   23.6019 H   0  0  0  0  0  0  0  0  0  0  0  0
    7.5816   -2.6066   23.3357 H   0  0  0  0  0  0  0  0  0  0  0  0
    8.7766   -2.8606   22.0650 H   0  0  0  0  0  0  0  0  0  0  0  0
    7.0239   -2.7507   20.5948 H   0  0  0  0  0  0  0  0  0  0  0  0
    5.9570   -1.9477   21.7832 H   0  0  0  0  0  0  0  0  0  0  0  0
    6.8900    0.2772   23.5669 H   0  0  0  0  0  0  0  0  0  0  0  0
    7.6602   -0.8709   24.6633 H   0  0  0  0  0  0  0  0  0  0  0  0
    7.7201    3.1037   25.6945 H   0  0  0  0  0  0  0  0  0  0  0  0
    9.3752    3.7161   25.4665 H   0  0  0  0  0  0  0  0  0  0  0  0
  1  2  3  0  0  0  0
  2 25  1  0  0  0  0
  3  4  2  0  0  0  0
  3  5  1  0  0  0  0
  4  6  1  0  0  0  0
  5 12  2  0  0  0  0
  6 13  2  0  0  0  0
  7  8  2  0  0  0  0
  7 14  1  0  0  0  0
  8 17  1  0  0  0  0
  9 15  1  0  0  0  0
  9 17  2  0  0  0  0
 10 12  1  0  0  0  0
 10 28  2  0  0  0  0
 11 16  2  0  0  0  0
 11 28  1  0  0  0  0
 12 13  1  0  0  0  0
 13 16  1  0  0  0  0
 14 15  2  0  0  0  0
 14 19  1  0  0  0  0
 15 26  1  6  0  0  0
 16 29  1  0  0  0  0
 17 35  1  0  0  0  0
 18 26  1  1  0  0  0
 18 29  1  0  0  0  0
 18 31  2  0  0  0  0
 19 30  1  0  0  0  0
 20 21  1  0  0  0  0
 20 25  1  0  0  0  0
 21 25  1  0  0  0  0
 22 23  1  0  0  0  0
 22 26  1  1  0  0  0
 23 29  1  0  0  0  0
 24 26  1  6  0  0  0
 24 30  1  0  0  0  0
 25 27  1  0  0  0  0
 27 34  1  0  0  0  0
 30 34  1  0  0  0  0
 32 34  2  0  0  0  0
 33 34  2  0  0  0  0
  1 36  1  0  0  0  0
  3 37  1  0  0  0  0
  4 38  1  0  0  0  0
  5 39  1  0  0  0  0
  6 40  1  0  0  0  0
  7 41  1  0  0  0  0
  8 42  1  0  0  0  0
  9 43  1  0  0  0  0
 10 44  1  0  0  0  0
 11 45  1  0  0  0  0
 19 46  1  0  0  0  0
 19 47  1  0  0  0  0
 20 48  1  0  0  0  0
 20 49  1  0  0  0  0
 21 50  1  0  0  0  0
 21 51  1  0  0  0  0
 22 52  1  0  0  0  0
 22 53  1  0  0  0  0
 23 54  1  0  0  0  0
 23 55  1  0  0  0  0
 24 56  1  0  0  0  0
 24 57  1  0  0  0  0
 27 58  1  0  0  0  0
 27 59  1  0  0  0  0
M  END
> <scaffold>
tetrahydroisoquinoline-5spiro-isoquinoline

> <compound>
PET-UNK-94036022-2

> <compound_smiles>
C#CC1(CC1)CS(=O)(=O)N2Cc3ccc(cc3[C@]4(C2)CCN(C4=O)c5cncc6c5cccc6)Cl

> <enantiomer_smiles>
C#CC1(CC1)CS(=O)(=O)[N@@]2Cc3ccc(cc3[C@]4(C2)CCN(C4=O)c5cncc6c5cccc6)Cl

> <clash_score>
0

> <docking_score>
3.4028234663852886e+38

> <overlap_score>
0.9736676216125488

> <MMFF_internal_energy>
132.5976949015379

> <docked_smiles>
C#CC1(CC1)CS(=O)(=O)[N@@]2Cc3ccc(cc3[C@]4(C2)CCN(C4=O)c5cncc6c5cccc6)Cl

$$$$
PET-UNK-94036022-9_1
  -OEChem-01042202313D

 59 64  0     1  0  0  0  0  0999 V2000
    6.6938    3.7636   28.9073 C   0  0  0  0  0  0  0  0  0  0  0  0
    6.5923    2.6670   28.4298 C   0  0  0  0  0  0  0  0  0  0  0  0
    3.3444    2.6278   20.4409 C   0  0  0  0  0  0  0  0  0  0  0  0
    3.8974    1.9290   21.5048 C   0  0  0  0  0  0  0  0  0  0  0  0
    3.7877    2.4205   19.1658 C   0  0  0  0  0  0  0  0  0  0  0  0
    4.8986    1.0232   21.2985 C   0  0  0  0  0  0  0  0  0  0  0  0
   12.0781    0.0316   24.1532 C   0  0  0  0  0  0  0  0  0  0  0  0
   12.9147   -0.6032   23.2559 C   0  0  0  0  0  0  0  0  0  0  0  0
   11.0005   -1.4332   22.0435 C   0  0  0  0  0  0  0  0  0  0  0  0
    5.3288    1.2339   17.6062 C   0  0  0  0  0  0  0  0  0  0  0  0
    6.8449   -0.2893   18.3747 C   0  0  0  0  0  0  0  0  0  0  0  0
    4.8238    1.4906   18.9051 C   0  0  0  0  0  0  0  0  0  0  0  0
    5.3995    0.7732   19.9944 C   0  0  0  0  0  0  0  0  0  0  0  0
   10.7056   -0.0626   23.9890 C   0  0  0  0  0  0  0  0  0  0  0  0
   10.1421   -0.7766   22.9242 C   0  0  0  0  0  0  0  0  0  0  0  0
    6.4452   -0.1472   19.6975 C   0  0  0  0  0  0  0  0  0  0  0  0
   12.3697   -1.3298   22.2224 C   0  0  0  0  0  0  0  0  0  0  0  0
    8.2504    0.0168   21.4265 C   0  0  0  0  0  0  0  0  0  0  0  0
    9.9496    0.5589   24.9527 C   0  0  0  0  0  0  0  0  0  0  0  0
    5.7974    0.2895   28.6968 C   0  0  0  0  0  0  0  0  0  0  0  0
    5.0772    0.8711   27.5163 C   0  0  0  0  0  0  0  0  0  0  0  0
    8.0155   -2.1541   22.4325 C   0  0  0  0  0  0  0  0  0  0  0  0
    6.9880   -1.9367   21.3575 C   0  0  0  0  0  0  0  0  0  0  0  0
    7.8737   -0.1194   23.8825 C   0  0  0  0  0  0  0  0  0  0  0  0
    6.4702    1.3516   27.8565 C   0  0  0  0  0  0  0  0  0  0  0  0
    8.6253   -0.7606   22.6923 C   0  0  3  0  0  0  0  0  0  0  0  0
    7.6088    0.9304   26.9546 C   0  0  0  0  0  0  0  0  0  0  0  0
    6.3072    0.3768   17.3417 N   0  0  0  0  0  0  0  0  0  0  0  0
    7.2305   -0.6898   20.7785 N   0  0  0  0  0  0  0  0  0  0  0  0
    8.6625    1.0133   24.4989 N   0  0  3  0  0  0  0  0  0  0  0  0
    8.8314    1.0394   21.0790 O   0  0  0  0  0  0  0  0  0  0  0  0
    6.4559    2.2241   24.9990 O   0  0  0  0  0  0  0  0  0  0  0  0
    8.6119    3.1278   25.9583 O   0  0  0  0  0  0  0  0  0  0  0  0
    7.7725    2.0180   25.5623 S   0  0  0  0  0  0  0  0  0  0  0  0
   13.4285   -2.1410   21.1076 Cl  0  0  0  0  0  0  0  0  0  0  0  0
    6.7839    4.7365   29.3311 H   0  0  0  0  0  0  0  0  0  0  0  0
    2.5443    3.3508   20.6368 H   0  0  0  0  0  0  0  0  0  0  0  0
    3.5189    2.1137   22.5166 H   0  0  0  0  0  0  0  0  0  0  0  0
    3.3421    2.9744   18.3363 H   0  0  0  0  0  0  0  0  0  0  0  0
    5.3131    0.4893   22.1569 H   0  0  0  0  0  0  0  0  0  0  0  0
   12.5038    0.5986   24.9731 H   0  0  0  0  0  0  0  0  0  0  0  0
   13.9925   -0.5165   23.3773 H   0  0  0  0  0  0  0  0  0  0  0  0
   10.6052   -2.0169   21.2237 H   0  0  0  0  0  0  0  0  0  0  0  0
    4.9151    1.7511   16.7471 H   0  0  0  0  0  0  0  0  0  0  0  0
    7.6455   -0.9765   18.1038 H   0  0  0  0  0  0  0  0  0  0  0  0
    9.7866   -0.1187   25.8304 H   0  0  0  0  0  0  0  0  0  0  0  0
   10.4816    1.4567   25.3600 H   0  0  0  0  0  0  0  0  0  0  0  0
    5.4358    0.5518   29.6847 H   0  0  0  0  0  0  0  0  0  0  0  0
    6.1481   -0.7331   28.6181 H   0  0  0  0  0  0  0  0  0  0  0  0
    4.9448    0.2375   26.6469 H   0  0  0  0  0  0  0  0  0  0  0  0
    4.2331    1.5218   27.7145 H   0  0  0  0  0  0  0  0  0  0  0  0
    7.5167   -2.5459   23.3332 H   0  0  0  0  0  0  0  0  0  0  0  0
    8.7666   -2.9029   22.1426 H   0  0  0  0  0  0  0  0  0  0  0  0
    7.0601   -2.7250   20.5715 H   0  0  0  0  0  0  0  0  0  0  0  0
    5.9530   -1.9963   21.7709 H   0  0  0  0  0  0  0  0  0  0  0  0
    6.8882    0.2643   23.5640 H   0  0  0  0  0  0  0  0  0  0  0  0
    7.6667   -0.8657   24.6729 H   0  0  0  0  0  0  0  0  0  0  0  0
    7.4436   -0.0759   26.5599 H   0  0  0  0  0  0  0  0  0  0  0  0
    8.5609    0.9485   27.4918 H   0  0  0  0  0  0  0  0  0  0  0  0
  1  2  3  0  0  0  0
  2 25  1  0  0  0  0
  3  4  2  0  0  0  0
  3  5  1  0  0  0  0
  4  6  1  0  0  0  0
  5 12  2  0  0  0  0
  6 13  2  0  0  0  0
  7  8  2  0  0  0  0
  7 14  1  0  0  0  0
  8 17  1  0  0  0  0
  9 15  1  0  0  0  0
  9 17  2  0  0  0  0
 10 12  1  0  0  0  0
 10 28  2  0  0  0  0
 11 16  2  0  0  0  0
 11 28  1  0  0  0  0
 12 13  1  0  0  0  0
 13 16  1  0  0  0  0
 14 15  2  0  0  0  0
 14 19  1  0  0  0  0
 15 26  1  0  0  0  0
 16 29  1  0  0  0  0
 17 35  1  0  0  0  0
 18 26  1  0  0  0  0
 18 29  1  0  0  0  0
 18 31  2  0  0  0  0
 19 30  1  0  0  0  0
 20 21  1  0  0  0  0
 20 25  1  0  0  0  0
 21 25  1  0  0  0  0
 22 23  1  0  0  0  0
 22 26  1  0  0  0  0
 23 29  1  0  0  0  0
 24 26  1  0  0  0  0
 24 30  1  0  0  0  0
 25 27  1  0  0  0  0
 27 34  1  0  0  0  0
 30 34  1  0  0  0  0
 32 34  2  0  0  0  0
 33 34  2  0  0  0  0
  1 36  1  0  0  0  0
  3 37  1  0  0  0  0
  4 38  1  0  0  0  0
  5 39  1  0  0  0  0
  6 40  1  0  0  0  0
  7 41  1  0  0  0  0
  8 42  1  0  0  0  0
  9 43  1  0  0  0  0
 10 44  1  0  0  0  0
 11 45  1  0  0  0  0
 19 46  1  0  0  0  0
 19 47  1  0  0  0  0
 20 48  1  0  0  0  0
 20 49  1  0  0  0  0
 21 50  1  0  0  0  0
 21 51  1  0  0  0  0
 22 52  1  0  0  0  0
 22 53  1  0  0  0  0
 23 54  1  0  0  0  0
 23 55  1  0  0  0  0
 24 56  1  0  0  0  0
 24 57  1  0  0  0  0
 27 58  1  0  0  0  0
 27 59  1  0  0  0  0
M  END
> <scaffold>
tetrahydroisoquinoline-5spiro-isoquinoline

> <compound>
PET-UNK-94036022-9

> <compound_smiles>
C#CC1(CC1)CS(=O)(=O)N2Cc3ccc(cc3C4(C2)CCN(C4=O)c5cncc6c5cccc6)Cl

> <enantiomer_smiles>
C#CC1(CC1)CS(=O)(=O)[N@]2Cc3ccc(cc3[C@@]4(C2)CCN(C4=O)c5cncc6c5cccc6)Cl

> <clash_score>
0

> <docking_score>
3.4028234663852886e+38

> <overlap_score>
0.970180094242096

> <MMFF_internal_energy>
122.0986014576633

> <docked_smiles>
C#CC1(CC1)CS(=O)(=O)[N@]2Cc3ccc(cc3[C@@]4(C2)CCN(C4=O)c5cncc6c5cccc6)Cl

$$$$
MAT-POS-c2d406ed-1_1
  -OEChem-01042202313D

 56 61  0     1  0  0  0  0  0999 V2000
    9.4959    5.5213   23.8156 C   0  0  0  0  0  0  0  0  0  0  0  0
    3.3444    2.6278   20.4409 C   0  0  0  0  0  0  0  0  0  0  0  0
    3.8974    1.9290   21.5048 C   0  0  0  0  0  0  0  0  0  0  0  0
    3.7877    2.4205   19.1658 C   0  0  0  0  0  0  0  0  0  0  0  0
    4.8986    1.0232   21.2985 C   0  0  0  0  0  0  0  0  0  0  0  0
   12.0781    0.0316   24.1532 C   0  0  0  0  0  0  0  0  0  0  0  0
   12.9147   -0.6032   23.2559 C   0  0  0  0  0  0  0  0  0  0  0  0
   11.0005   -1.4332   22.0435 C   0  0  0  0  0  0  0  0  0  0  0  0
    5.3288    1.2339   17.6062 C   0  0  0  0  0  0  0  0  0  0  0  0
    6.8449   -0.2893   18.3747 C   0  0  0  0  0  0  0  0  0  0  0  0
    4.8238    1.4906   18.9051 C   0  0  0  0  0  0  0  0  0  0  0  0
    5.3995    0.7732   19.9944 C   0  0  0  0  0  0  0  0  0  0  0  0
   10.7056   -0.0626   23.9890 C   0  0  0  0  0  0  0  0  0  0  0  0
   10.1421   -0.7766   22.9242 C   0  0  0  0  0  0  0  0  0  0  0  0
    6.4452   -0.1472   19.6975 C   0  0  0  0  0  0  0  0  0  0  0  0
   12.3697   -1.3298   22.2224 C   0  0  0  0  0  0  0  0  0  0  0  0
    8.2504    0.0168   21.4265 C   0  0  0  0  0  0  0  0  0  0  0  0
    6.9880   -1.9367   21.3575 C   0  0  0  0  0  0  0  0  0  0  0  0
    9.9496    0.5589   24.9527 C   0  0  0  0  0  0  0  0  0  0  0  0
    7.5683    6.0280   25.3594 C   0  0  0  0  0  0  0  0  0  0  0  0
    6.9867    5.5695   24.0548 C   0  0  0  0  0  0  0  0  0  0  0  0
    7.8737   -0.1194   23.8825 C   0  0  0  0  0  0  0  0  0  0  0  0
    8.3285    5.0375   24.5063 C   0  0  0  0  0  0  0  0  0  0  0  0
    8.6253   -0.7606   22.6923 C   0  0  3  0  0  0  0  0  0  0  0  0
    8.4035    3.6024   24.9773 C   0  0  0  0  0  0  0  0  0  0  0  0
   10.4364    5.9110   23.2591 N   0  0  0  0  0  0  0  0  0  0  0  0
    6.3072    0.3768   17.3417 N   0  0  0  0  0  0  0  0  0  0  0  0
    8.0155   -2.1541   22.4325 N   0  0  0  0  0  0  0  0  0  0  0  0
    7.2305   -0.6898   20.7785 N   0  0  0  0  0  0  0  0  0  0  0  0
    8.6625    1.0133   24.4989 N   0  0  3  0  0  0  0  0  0  0  0  0
    8.7724    1.0694   21.1186 O   0  0  0  0  0  0  0  0  0  0  0  0
    6.1660   -2.7935   21.1186 O   0  0  0  0  0  0  0  0  0  0  0  0
    7.4283    2.5279   22.8044 O   0  0  0  0  0  0  0  0  0  0  0  0
    9.9359    2.7120   23.0573 O   0  0  0  0  0  0  0  0  0  0  0  0
    8.6228    2.4824   23.6189 S   0  0  0  0  0  0  0  0  0  0  0  0
   13.4286   -2.1428   21.1091 Cl  0  0  0  0  0  0  0  0  0  0  0  0
    2.5443    3.3508   20.6368 H   0  0  0  0  0  0  0  0  0  0  0  0
    3.5189    2.1137   22.5166 H   0  0  0  0  0  0  0  0  0  0  0  0
    3.3421    2.9744   18.3363 H   0  0  0  0  0  0  0  0  0  0  0  0
    5.3131    0.4893   22.1569 H   0  0  0  0  0  0  0  0  0  0  0  0
   12.5036    0.5927   24.9775 H   0  0  0  0  0  0  0  0  0  0  0  0
   13.9924   -0.5220   23.3816 H   0  0  0  0  0  0  0  0  0  0  0  0
   10.6064   -2.0213   21.2258 H   0  0  0  0  0  0  0  0  0  0  0  0
    4.9151    1.7511   16.7471 H   0  0  0  0  0  0  0  0  0  0  0  0
    7.6455   -0.9765   18.1038 H   0  0  0  0  0  0  0  0  0  0  0  0
    9.7606   -0.1291   25.8172 H   0  0  0  0  0  0  0  0  0  0  0  0
   10.4959    1.4381   25.3847 H   0  0  0  0  0  0  0  0  0  0  0  0
    7.9228    7.0509   25.4193 H   0  0  0  0  0  0  0  0  0  0  0  0
    7.0997    5.6748   26.2707 H   0  0  0  0  0  0  0  0  0  0  0  0
    6.1276    4.9097   24.0923 H   0  0  0  0  0  0  0  0  0  0  0  0
    6.9512    6.2862   23.2421 H   0  0  0  0  0  0  0  0  0  0  0  0
    6.8956    0.2820   23.5613 H   0  0  0  0  0  0  0  0  0  0  0  0
    7.6781   -0.8746   24.6640 H   0  0  0  0  0  0  0  0  0  0  0  0
    7.4831    3.3103   25.4905 H   0  0  0  0  0  0  0  0  0  0  0  0
    9.2488    3.4566   25.6553 H   0  0  0  0  0  0  0  0  0  0  0  0
    8.2304   -2.9431   22.8420 H   0  0  0  0  0  0  0  0  0  0  0  0
  1 23  1  0  0  0  0
  1 26  3  0  0  0  0
  2  3  2  0  0  0  0
  2  4  1  0  0  0  0
  3  5  1  0  0  0  0
  4 11  2  0  0  0  0
  5 12  2  0  0  0  0
  6  7  2  0  0  0  0
  6 13  1  0  0  0  0
  7 16  1  0  0  0  0
  8 14  1  0  0  0  0
  8 16  2  0  0  0  0
  9 11  1  0  0  0  0
  9 27  2  0  0  0  0
 10 15  2  0  0  0  0
 10 27  1  0  0  0  0
 11 12  1  0  0  0  0
 12 15  1  0  0  0  0
 13 14  2  0  0  0  0
 13 19  1  0  0  0  0
 14 24  1  0  0  0  0
 15 29  1  0  0  0  0
 16 36  1  0  0  0  0
 17 24  1  0  0  0  0
 17 29  1  0  0  0  0
 17 31  2  0  0  0  0
 18 28  1  0  0  0  0
 18 29  1  0  0  0  0
 18 32  2  0  0  0  0
 19 30  1  0  0  0  0
 20 21  1  0  0  0  0
 20 23  1  0  0  0  0
 21 23  1  0  0  0  0
 22 24  1  0  0  0  0
 22 30  1  0  0  0  0
 23 25  1  0  0  0  0
 24 28  1  0  0  0  0
 25 35  1  0  0  0  0
 30 35  1  0  0  0  0
 33 35  2  0  0  0  0
 34 35  2  0  0  0  0
  2 37  1  0  0  0  0
  3 38  1  0  0  0  0
  4 39  1  0  0  0  0
  5 40  1  0  0  0  0
  6 41  1  0  0  0  0
  7 42  1  0  0  0  0
  8 43  1  0  0  0  0
  9 44  1  0  0  0  0
 10 45  1  0  0  0  0
 19 46  1  0  0  0  0
 19 47  1  0  0  0  0
 20 48  1  0  0  0  0
 20 49  1  0  0  0  0
 21 50  1  0  0  0  0
 21 51  1  0  0  0  0
 22 52  1  0  0  0  0
 22 53  1  0  0  0  0
 25 54  1  0  0  0  0
 25 55  1  0  0  0  0
 28 56  1  0  0  0  0
M  END
> <scaffold>
tetrahydroisoquinoline-5spiro-isoquinoline

> <compound>
MAT-POS-c2d406ed-1

> <compound_smiles>
c1ccc2c(c1)cncc2N3C(=O)C4(CN(Cc5c4cc(cc5)Cl)S(=O)(=O)CC6(CC6)C#N)NC3=O

> <enantiomer_smiles>
c1ccc2c(c1)cncc2N3C(=O)[C@]4(C[N@@](Cc5c4cc(cc5)Cl)S(=O)(=O)CC6(CC6)C#N)NC3=O

> <clash_score>
0

> <docking_score>
3.4028234663852886e+38

> <overlap_score>
1.0

> <MMFF_internal_energy>
103.1122236298378

> <docked_smiles>
c1ccc2c(c1)cncc2N3C(=O)[C@]4(C[N@@](Cc5c4cc(cc5)Cl)S(=O)(=O)CC6(CC6)C#N)NC3=O

$$$$
MAT-POS-38eb6498-6_1
  -OEChem-01042202313D

 60 64  0     1  0  0  0  0  0999 V2000
    3.7877    2.4205   19.1658 C   0  0  0  0  0  0  0  0  0  0  0  0
   12.0781    0.0316   24.1532 C   0  0  0  0  0  0  0  0  0  0  0  0
    3.3444    2.6278   20.4409 C   0  0  0  0  0  0  0  0  0  0  0  0
   12.9147   -0.6032   23.2559 C   0  0  0  0  0  0  0  0  0  0  0  0
    4.8986    1.0232   21.2985 C   0  0  0  0  0  0  0  0  0  0  0  0
   11.0005   -1.4332   22.0435 C   0  0  0  0  0  0  0  0  0  0  0  0
    5.3288    1.2339   17.6062 C   0  0  0  0  0  0  0  0  0  0  0  0
    6.8449   -0.2893   18.3747 C   0  0  0  0  0  0  0  0  0  0  0  0
    4.8238    1.4906   18.9051 C   0  0  0  0  0  0  0  0  0  0  0  0
    5.3995    0.7732   19.9944 C   0  0  0  0  0  0  0  0  0  0  0  0
   10.7056   -0.0626   23.9890 C   0  0  0  0  0  0  0  0  0  0  0  0
    3.8974    1.9290   21.5048 C   0  0  0  0  0  0  0  0  0  0  0  0
   10.1421   -0.7766   22.9242 C   0  0  0  0  0  0  0  0  0  0  0  0
    6.4452   -0.1472   19.6975 C   0  0  0  0  0  0  0  0  0  0  0  0
   12.3697   -1.3298   22.2224 C   0  0  0  0  0  0  0  0  0  0  0  0
    9.9496    0.5589   24.9527 C   0  0  0  0  0  0  0  0  0  0  0  0
    8.2504    0.0168   21.4265 C   0  0  0  0  0  0  0  0  0  0  0  0
    3.3939    2.1750   22.8575 C   0  0  0  0  0  0  0  0  0  0  0  0
    7.2900    2.1445   26.0369 C   0  0  0  0  0  0  0  0  0  0  0  0
    8.0155   -2.1541   22.4325 C   0  0  0  0  0  0  0  0  0  0  0  0
    6.9880   -1.9367   21.3575 C   0  0  0  0  0  0  0  0  0  0  0  0
    7.8737   -0.1194   23.8825 C   0  0  0  0  0  0  0  0  0  0  0  0
    8.6253   -0.7606   22.6923 C   0  0  3  0  0  0  0  0  0  0  0  0
    3.0461    1.1954   25.1386 C   0  0  0  0  0  0  0  0  0  0  0  0
    6.5711    3.5767   27.9463 C   0  0  0  0  0  0  0  0  0  0  0  0
    8.0937    2.2235   24.7641 C   0  0  0  0  0  0  0  0  0  0  0  0
    6.3072    0.3768   17.3417 N   0  0  0  0  0  0  0  0  0  0  0  0
    7.2305   -0.6898   20.7785 N   0  0  0  0  0  0  0  0  0  0  0  0
    8.6625    1.0133   24.4989 N   0  0  0  0  0  0  0  0  0  0  0  0
    3.5143    1.1233   23.7732 N   0  0  0  0  0  0  0  0  0  0  0  0
    7.2701    3.3635   26.6994 N   0  0  0  0  0  0  0  0  0  0  0  0
   10.3233    0.7301   26.1084 O   0  0  0  0  0  0  0  0  0  0  0  0
    8.8205    1.0412   21.0776 O   0  0  0  0  0  0  0  0  0  0  0  0
    2.8688    3.2627   23.1542 O   0  0  0  0  0  0  0  0  0  0  0  0
    6.7292    1.1210   26.4195 O   0  0  0  0  0  0  0  0  0  0  0  0
   13.4288   -2.1465   21.1124 Cl  0  0  0  0  0  0  0  0  0  0  0  0
    3.3432    2.9749   18.3363 H   0  0  0  0  0  0  0  0  0  0  0  0
   12.5188    0.5961   24.9710 H   0  0  0  0  0  0  0  0  0  0  0  0
    2.5429    3.3536   20.6248 H   0  0  0  0  0  0  0  0  0  0  0  0
   13.9920   -0.5226   23.3817 H   0  0  0  0  0  0  0  0  0  0  0  0
    5.3206    0.4827   22.1504 H   0  0  0  0  0  0  0  0  0  0  0  0
   10.6143   -2.0253   21.2266 H   0  0  0  0  0  0  0  0  0  0  0  0
    4.9142    1.7507   16.7472 H   0  0  0  0  0  0  0  0  0  0  0  0
    7.6463   -0.9752   18.1039 H   0  0  0  0  0  0  0  0  0  0  0  0
    7.5128   -2.5277   23.3386 H   0  0  0  0  0  0  0  0  0  0  0  0
    8.7593   -2.9102   22.1430 H   0  0  0  0  0  0  0  0  0  0  0  0
    7.0602   -2.7255   20.5716 H   0  0  0  0  0  0  0  0  0  0  0  0
    5.9526   -1.9964   21.7706 H   0  0  0  0  0  0  0  0  0  0  0  0
    6.9217    0.3182   23.5732 H   0  0  0  0  0  0  0  0  0  0  0  0
    7.6678   -0.8543   24.6617 H   0  0  0  0  0  0  0  0  0  0  0  0
    3.8721    1.5088   25.7940 H   0  0  0  0  0  0  0  0  0  0  0  0
    2.2265    1.9260   25.2070 H   0  0  0  0  0  0  0  0  0  0  0  0
    2.6828    0.2063   25.4543 H   0  0  0  0  0  0  0  0  0  0  0  0
    5.5409    3.9020   27.7387 H   0  0  0  0  0  0  0  0  0  0  0  0
    6.5506    2.6385   28.5201 H   0  0  0  0  0  0  0  0  0  0  0  0
    7.0898    4.3520   28.5293 H   0  0  0  0  0  0  0  0  0  0  0  0
    7.4419    2.5111   23.9339 H   0  0  0  0  0  0  0  0  0  0  0  0
    8.8897    2.9659   24.8736 H   0  0  0  0  0  0  0  0  0  0  0  0
    3.8934    0.2351   23.4616 H   0  0  0  0  0  0  0  0  0  0  0  0
    7.7718    4.1449   26.2876 H   0  0  0  0  0  0  0  0  0  0  0  0
  1  3  2  0  0  0  0
  1  9  1  0  0  0  0
  2  4  2  0  0  0  0
  2 11  1  0  0  0  0
  3 12  1  0  0  0  0
  4 15  1  0  0  0  0
  5 10  1  0  0  0  0
  5 12  2  0  0  0  0
  6 13  1  0  0  0  0
  6 15  2  0  0  0  0
  7  9  2  0  0  0  0
  7 27  1  0  0  0  0
  8 14  1  0  0  0  0
  8 27  2  0  0  0  0
  9 10  1  0  0  0  0
 10 14  2  0  0  0  0
 11 13  2  0  0  0  0
 11 16  1  0  0  0  0
 12 18  1  0  0  0  0
 13 23  1  0  0  0  0
 14 28  1  0  0  0  0
 15 36  1  0  0  0  0
 16 29  1  0  0  0  0
 16 32  2  0  0  0  0
 17 23  1  0  0  0  0
 17 28  1  0  0  0  0
 17 33  2  0  0  0  0
 18 30  1  0  0  0  0
 18 34  2  0  0  0  0
 19 26  1  0  0  0  0
 19 31  1  0  0  0  0
 19 35  2  0  0  0  0
 20 21  1  0  0  0  0
 20 23  1  0  0  0  0
 21 28  1  0  0  0  0
 22 23  1  0  0  0  0
 22 29  1  0  0  0  0
 24 30  1  0  0  0  0
 25 31  1  0  0  0  0
 26 29  1  0  0  0  0
  1 37  1  0  0  0  0
  2 38  1  0  0  0  0
  3 39  1  0  0  0  0
  4 40  1  0  0  0  0
  5 41  1  0  0  0  0
  6 42  1  0  0  0  0
  7 43  1  0  0  0  0
  8 44  1  0  0  0  0
 20 45  1  0  0  0  0
 20 46  1  0  0  0  0
 21 47  1  0  0  0  0
 21 48  1  0  0  0  0
 22 49  1  0  0  0  0
 22 50  1  0  0  0  0
 24 51  1  0  0  0  0
 24 52  1  0  0  0  0
 24 53  1  0  0  0  0
 25 54  1  0  0  0  0
 25 55  1  0  0  0  0
 25 56  1  0  0  0  0
 26 57  1  0  0  0  0
 26 58  1  0  0  0  0
 30 59  1  0  0  0  0
 31 60  1  0  0  0  0
M  END
> <scaffold>
tetrahydroisoquinoline-5spiro-isoquinoline

> <compound>
MAT-POS-38eb6498-6

> <compound_smiles>
CNC(=O)CN1CC2(CCN(C2=O)c3cncc4c3cc(cc4)C(=O)NC)c5cc(ccc5C1=O)Cl

> <enantiomer_smiles>
CNC(=O)CN1C[C@]2(CCN(C2=O)c3cncc4c3cc(cc4)C(=O)NC)c5cc(ccc5C1=O)Cl

> <clash_score>
0

> <docking_score>
3.4028234663852886e+38

> <overlap_score>
1.0

> <MMFF_internal_energy>
148.64497360324188

> <docked_smiles>
CNC(=O)CN1C[C@]2(CCN(C2=O)c3cncc4c3cc(cc4)C(=O)NC)c5cc(ccc5C1=O)Cl

$$$$
EDJ-MED-cc48ee33-2_1
  -OEChem-01042202313D

 55 60  0     1  0  0  0  0  0999 V2000
    3.3444    2.6278   20.4409 C   0  0  0  0  0  0  0  0  0  0  0  0
    3.8974    1.9290   21.5048 C   0  0  0  0  0  0  0  0  0  0  0  0
    3.7877    2.4205   19.1658 C   0  0  0  0  0  0  0  0  0  0  0  0
    4.8986    1.0232   21.2985 C   0  0  0  0  0  0  0  0  0  0  0  0
   12.0781    0.0316   24.1532 C   0  0  0  0  0  0  0  0  0  0  0  0
   12.9147   -0.6032   23.2559 C   0  0  0  0  0  0  0  0  0  0  0  0
   10.1092    3.6636   24.6176 C   0  0  0  0  0  0  0  0  0  0  0  0
   11.0005   -1.4332   22.0435 C   0  0  0  0  0  0  0  0  0  0  0  0
   10.4197    4.8947   25.2259 C   0  0  0  0  0  0  0  0  0  0  0  0
    5.3288    1.2339   17.6062 C   0  0  0  0  0  0  0  0  0  0  0  0
    6.8449   -0.2893   18.3747 C   0  0  0  0  0  0  0  0  0  0  0  0
    4.8238    1.4906   18.9051 C   0  0  0  0  0  0  0  0  0  0  0  0
    5.3995    0.7732   19.9944 C   0  0  0  0  0  0  0  0  0  0  0  0
   10.7056   -0.0626   23.9890 C   0  0  0  0  0  0  0  0  0  0  0  0
   10.1421   -0.7766   22.9242 C   0  0  0  0  0  0  0  0  0  0  0  0
    6.4452   -0.1472   19.6975 C   0  0  0  0  0  0  0  0  0  0  0  0
   12.3697   -1.3298   22.2224 C   0  0  0  0  0  0  0  0  0  0  0  0
    8.8573    3.3534   25.0899 C   0  0  0  0  0  0  0  0  0  0  0  0
    9.9496    0.5589   24.9527 C   0  0  0  0  0  0  0  0  0  0  0  0
    8.2504    0.0168   21.4265 C   0  0  0  0  0  0  0  0  0  0  0  0
    8.0249    2.1706   24.7897 C   0  0  0  0  0  0  0  0  0  0  0  0
    8.0155   -2.1541   22.4325 C   0  0  0  0  0  0  0  0  0  0  0  0
    6.9880   -1.9367   21.3575 C   0  0  0  0  0  0  0  0  0  0  0  0
    7.8737   -0.1194   23.8825 C   0  0  0  0  0  0  0  0  0  0  0  0
    8.6253   -0.7606   22.6923 C   0  0  3  0  0  0  0  0  0  0  0  0
    7.2745    4.5118   26.6603 C   0  0  0  0  0  0  0  0  0  0  0  0
    6.3072    0.3768   17.3417 N   0  0  0  0  0  0  0  0  0  0  0  0
    9.4437    5.3364   26.0235 N   0  0  0  0  0  0  0  0  0  0  0  0
    8.5076    4.3778   25.9197 N   0  0  0  0  0  0  0  0  0  0  0  0
    7.2305   -0.6898   20.7785 N   0  0  0  0  0  0  0  0  0  0  0  0
    8.6625    1.0133   24.4989 N   0  0  0  0  0  0  0  0  0  0  0  0
   10.3320    0.7051   26.1078 O   0  0  0  0  0  0  0  0  0  0  0  0
    8.8209    1.0396   21.0775 O   0  0  0  0  0  0  0  0  0  0  0  0
    6.8040    2.3204   24.8391 O   0  0  0  0  0  0  0  0  0  0  0  0
   13.4290   -2.1447   21.1110 Cl  0  0  0  0  0  0  0  0  0  0  0  0
    2.5443    3.3508   20.6368 H   0  0  0  0  0  0  0  0  0  0  0  0
    3.5189    2.1137   22.5166 H   0  0  0  0  0  0  0  0  0  0  0  0
    3.3421    2.9744   18.3363 H   0  0  0  0  0  0  0  0  0  0  0  0
    5.3131    0.4893   22.1569 H   0  0  0  0  0  0  0  0  0  0  0  0
   12.5211    0.5934   24.9706 H   0  0  0  0  0  0  0  0  0  0  0  0
   13.9921   -0.5236   23.3818 H   0  0  0  0  0  0  0  0  0  0  0  0
   10.7131    3.0867   23.9321 H   0  0  0  0  0  0  0  0  0  0  0  0
   10.6146   -2.0235   21.2255 H   0  0  0  0  0  0  0  0  0  0  0  0
   11.3162    5.4887   25.1209 H   0  0  0  0  0  0  0  0  0  0  0  0
    4.9151    1.7511   16.7471 H   0  0  0  0  0  0  0  0  0  0  0  0
    7.6455   -0.9765   18.1038 H   0  0  0  0  0  0  0  0  0  0  0  0
    7.5117   -2.5256   23.3387 H   0  0  0  0  0  0  0  0  0  0  0  0
    8.7590   -2.9106   22.1437 H   0  0  0  0  0  0  0  0  0  0  0  0
    7.0619   -2.7257   20.5723 H   0  0  0  0  0  0  0  0  0  0  0  0
    5.9525   -1.9972   21.7697 H   0  0  0  0  0  0  0  0  0  0  0  0
    6.9265    0.3232   23.5580 H   0  0  0  0  0  0  0  0  0  0  0  0
    7.6347   -0.8681   24.6385 H   0  0  0  0  0  0  0  0  0  0  0  0
    7.4139    4.0387   27.6359 H   0  0  0  0  0  0  0  0  0  0  0  0
    7.0352    5.5721   26.7802 H   0  0  0  0  0  0  0  0  0  0  0  0
    6.4668    4.0226   26.1088 H   0  0  0  0  0  0  0  0  0  0  0  0
  1  2  2  0  0  0  0
  1  3  1  0  0  0  0
  2  4  1  0  0  0  0
  3 12  2  0  0  0  0
  4 13  2  0  0  0  0
  5  6  2  0  0  0  0
  5 14  1  0  0  0  0
  6 17  1  0  0  0  0
  7  9  1  0  0  0  0
  7 18  2  0  0  0  0
  8 15  1  0  0  0  0
  8 17  2  0  0  0  0
  9 28  2  0  0  0  0
 10 12  1  0  0  0  0
 10 27  2  0  0  0  0
 11 16  2  0  0  0  0
 11 27  1  0  0  0  0
 12 13  1  0  0  0  0
 13 16  1  0  0  0  0
 14 15  2  0  0  0  0
 14 19  1  0  0  0  0
 15 25  1  0  0  0  0
 16 30  1  0  0  0  0
 17 35  1  0  0  0  0
 18 21  1  0  0  0  0
 18 29  1  0  0  0  0
 19 31  1  0  0  0  0
 19 32  2  0  0  0  0
 20 25  1  0  0  0  0
 20 30  1  0  0  0  0
 20 33  2  0  0  0  0
 21 31  1  0  0  0  0
 21 34  2  0  0  0  0
 22 23  1  0  0  0  0
 22 25  1  0  0  0  0
 23 30  1  0  0  0  0
 24 25  1  0  0  0  0
 24 31  1  0  0  0  0
 26 29  1  0  0  0  0
 28 29  1  0  0  0  0
  1 36  1  0  0  0  0
  2 37  1  0  0  0  0
  3 38  1  0  0  0  0
  4 39  1  0  0  0  0
  5 40  1  0  0  0  0
  6 41  1  0  0  0  0
  7 42  1  0  0  0  0
  8 43  1  0  0  0  0
  9 44  1  0  0  0  0
 10 45  1  0  0  0  0
 11 46  1  0  0  0  0
 22 47  1  0  0  0  0
 22 48  1  0  0  0  0
 23 49  1  0  0  0  0
 23 50  1  0  0  0  0
 24 51  1  0  0  0  0
 24 52  1  0  0  0  0
 26 53  1  0  0  0  0
 26 54  1  0  0  0  0
 26 55  1  0  0  0  0
M  END
> <scaffold>
tetrahydroisoquinoline-5spiro-isoquinoline

> <compound>
EDJ-MED-cc48ee33-2

> <compound_smiles>
Cn1c(ccn1)C(=O)N2CC3(CCN(C3=O)c4cncc5c4cccc5)c6cc(ccc6C2=O)Cl

> <enantiomer_smiles>
Cn1c(ccn1)C(=O)N2C[C@]3(CCN(C3=O)c4cncc5c4cccc5)c6cc(ccc6C2=O)Cl

> <clash_score>
0.6437820462739189

> <docking_score>
3.4028234663852886e+38

> <overlap_score>
0.9851128458976746

> <MMFF_internal_energy>
115.1758951018686

> <docked_smiles>
Cn1c(ccn1)C(=O)N2C[C@]3(CCN(C3=O)c4cncc5c4cccc5)c6cc(ccc6C2=O)Cl

$$$$
LUO-POS-868e8996-9_1
  -OEChem-01042202313D

 57 62  0     1  0  0  0  0  0999 V2000
    9.4923    5.5219   23.8241 C   0  0  0  0  0  0  0  0  0  0  0  0
    3.3444    2.6278   20.4409 C   0  0  0  0  0  0  0  0  0  0  0  0
    3.8974    1.9290   21.5048 C   0  0  0  0  0  0  0  0  0  0  0  0
    3.7877    2.4205   19.1658 C   0  0  0  0  0  0  0  0  0  0  0  0
    4.8986    1.0232   21.2985 C   0  0  0  0  0  0  0  0  0  0  0  0
   12.0781    0.0316   24.1532 C   0  0  0  0  0  0  0  0  0  0  0  0
   12.9147   -0.6032   23.2559 C   0  0  0  0  0  0  0  0  0  0  0  0
   11.0005   -1.4332   22.0435 C   0  0  0  0  0  0  0  0  0  0  0  0
    5.3288    1.2339   17.6062 C   0  0  0  0  0  0  0  0  0  0  0  0
    6.8449   -0.2893   18.3747 C   0  0  0  0  0  0  0  0  0  0  0  0
    4.8238    1.4906   18.9051 C   0  0  0  0  0  0  0  0  0  0  0  0
    5.3995    0.7732   19.9944 C   0  0  0  0  0  0  0  0  0  0  0  0
   10.7056   -0.0626   23.9890 C   0  0  0  0  0  0  0  0  0  0  0  0
   10.1421   -0.7766   22.9242 C   0  0  0  0  0  0  0  0  0  0  0  0
    6.4452   -0.1472   19.6975 C   0  0  0  0  0  0  0  0  0  0  0  0
   12.3697   -1.3298   22.2224 C   0  0  0  0  0  0  0  0  0  0  0  0
    6.9880   -1.9367   21.3575 C   0  0  0  0  0  0  0  0  0  0  0  0
    8.2504    0.0168   21.4265 C   0  0  0  0  0  0  0  0  0  0  0  0
    9.9496    0.5589   24.9527 C   0  0  0  0  0  0  0  0  0  0  0  0
    8.0155   -2.1541   22.4325 C   0  0  0  0  0  0  0  0  0  0  0  0
    7.5647    6.0232   25.3696 C   0  0  0  0  0  0  0  0  0  0  0  0
    6.9832    5.5675   24.0639 C   0  0  0  0  0  0  0  0  0  0  0  0
    7.8737   -0.1194   23.8825 C   0  0  0  0  0  0  0  0  0  0  0  0
    8.3255    5.0355   24.5138 C   0  0  0  0  0  0  0  0  0  0  0  0
    8.6253   -0.7606   22.6923 C   0  0  1  0  0  0  0  0  0  0  0  0
    8.4018    3.5992   24.9813 C   0  0  0  0  0  0  0  0  0  0  0  0
   10.4325    5.9138   23.2685 N   0  0  0  0  0  0  0  0  0  0  0  0
    6.3072    0.3768   17.3417 N   0  0  0  0  0  0  0  0  0  0  0  0
    7.2305   -0.6898   20.7785 N   0  0  0  0  0  0  0  0  0  0  0  0
    8.6625    1.0133   24.4989 N   0  0  3  0  0  0  0  0  0  0  0  0
    6.1222   -2.7602   21.1043 O   0  0  0  0  0  0  0  0  0  0  0  0
    8.7910    1.0611   21.1020 O   0  0  0  0  0  0  0  0  0  0  0  0
    7.4262    2.5285   22.8067 O   0  0  0  0  0  0  0  0  0  0  0  0
    9.9336    2.7175   23.0568 O   0  0  0  0  0  0  0  0  0  0  0  0
    8.6218    2.4827   23.6200 S   0  0  0  0  0  0  0  0  0  0  0  0
   13.4285   -2.1416   21.1080 Cl  0  0  0  0  0  0  0  0  0  0  0  0
    2.5443    3.3508   20.6368 H   0  0  0  0  0  0  0  0  0  0  0  0
    3.5189    2.1137   22.5166 H   0  0  0  0  0  0  0  0  0  0  0  0
    3.3421    2.9744   18.3363 H   0  0  0  0  0  0  0  0  0  0  0  0
    5.3131    0.4893   22.1569 H   0  0  0  0  0  0  0  0  0  0  0  0
   12.5036    0.5928   24.9773 H   0  0  0  0  0  0  0  0  0  0  0  0
   13.9927   -0.5225   23.3814 H   0  0  0  0  0  0  0  0  0  0  0  0
   10.6045   -2.0211   21.2270 H   0  0  0  0  0  0  0  0  0  0  0  0
    4.9151    1.7511   16.7471 H   0  0  0  0  0  0  0  0  0  0  0  0
    7.6455   -0.9765   18.1038 H   0  0  0  0  0  0  0  0  0  0  0  0
    9.7608   -0.1291   25.8168 H   0  0  0  0  0  0  0  0  0  0  0  0
   10.4951    1.4388   25.3829 H   0  0  0  0  0  0  0  0  0  0  0  0
    7.5419   -2.5808   23.3241 H   0  0  0  0  0  0  0  0  0  0  0  0
    8.7461   -2.8785   22.0508 H   0  0  0  0  0  0  0  0  0  0  0  0
    7.9182    7.0462   25.4320 H   0  0  0  0  0  0  0  0  0  0  0  0
    7.0965    5.6673   26.2801 H   0  0  0  0  0  0  0  0  0  0  0  0
    6.1246    4.9068   24.0999 H   0  0  0  0  0  0  0  0  0  0  0  0
    6.9470    6.2861   23.2531 H   0  0  0  0  0  0  0  0  0  0  0  0
    6.8898    0.2774   23.5690 H   0  0  0  0  0  0  0  0  0  0  0  0
    7.6642   -0.8749   24.6614 H   0  0  0  0  0  0  0  0  0  0  0  0
    7.4817    3.3051   25.4939 H   0  0  0  0  0  0  0  0  0  0  0  0
    9.2474    3.4524   25.6587 H   0  0  0  0  0  0  0  0  0  0  0  0
  1 24  1  0  0  0  0
  1 27  3  0  0  0  0
  2  3  2  0  0  0  0
  2  4  1  0  0  0  0
  3  5  1  0  0  0  0
  4 11  2  0  0  0  0
  5 12  2  0  0  0  0
  6  7  2  0  0  0  0
  6 13  1  0  0  0  0
  7 16  1  0  0  0  0
  8 14  1  0  0  0  0
  8 16  2  0  0  0  0
  9 11  1  0  0  0  0
  9 28  2  0  0  0  0
 10 15  2  0  0  0  0
 10 28  1  0  0  0  0
 11 12  1  0  0  0  0
 12 15  1  0  0  0  0
 13 14  2  0  0  0  0
 13 19  1  0  0  0  0
 14 25  1  6  0  0  0
 15 29  1  0  0  0  0
 16 36  1  0  0  0  0
 17 20  1  0  0  0  0
 17 29  1  0  0  0  0
 17 31  2  0  0  0  0
 18 25  1  1  0  0  0
 18 29  1  0  0  0  0
 18 32  2  0  0  0  0
 19 30  1  0  0  0  0
 20 25  1  1  0  0  0
 21 22  1  0  0  0  0
 21 24  1  0  0  0  0
 22 24  1  0  0  0  0
 23 25  1  6  0  0  0
 23 30  1  0  0  0  0
 24 26  1  0  0  0  0
 26 35  1  0  0  0  0
 30 35  1  0  0  0  0
 33 35  2  0  0  0  0
 34 35  2  0  0  0  0
  2 37  1  0  0  0  0
  3 38  1  0  0  0  0
  4 39  1  0  0  0  0
  5 40  1  0  0  0  0
  6 41  1  0  0  0  0
  7 42  1  0  0  0  0
  8 43  1  0  0  0  0
  9 44  1  0  0  0  0
 10 45  1  0  0  0  0
 19 46  1  0  0  0  0
 19 47  1  0  0  0  0
 20 48  1  0  0  0  0
 20 49  1  0  0  0  0
 21 50  1  0  0  0  0
 21 51  1  0  0  0  0
 22 52  1  0  0  0  0
 22 53  1  0  0  0  0
 23 54  1  0  0  0  0
 23 55  1  0  0  0  0
 26 56  1  0  0  0  0
 26 57  1  0  0  0  0
M  END
> <scaffold>
tetrahydroisoquinoline-5spiro-isoquinoline

> <compound>
LUO-POS-868e8996-9

> <compound_smiles>
c1ccc2c(c1)cncc2N3C(=O)C[C@@]4(C3=O)CN(Cc5c4cc(cc5)Cl)S(=O)(=O)CC6(CC6)C#N

> <enantiomer_smiles>
c1ccc2c(c1)cncc2N3C(=O)C[C@@]4(C3=O)C[N@@](Cc5c4cc(cc5)Cl)S(=O)(=O)CC6(CC6)C#N

> <clash_score>
0

> <docking_score>
3.4028234663852886e+38

> <overlap_score>
1.0

> <MMFF_internal_energy>
86.79743789591134

> <docked_smiles>
c1ccc2c(c1)cncc2N3C(=O)C[C@@]4(C3=O)C[N@@](Cc5c4cc(cc5)Cl)S(=O)(=O)CC6(CC6)C#N

$$$$
MAT-POS-853c0ffa-5_1
  -OEChem-01042202313D

 58 63  0     1  0  0  0  0  0999 V2000
    6.5923    2.6670   28.4298 C   0  0  0  0  0  0  0  0  0  0  0  0
    3.3444    2.6278   20.4409 C   0  0  0  0  0  0  0  0  0  0  0  0
    3.7877    2.4205   19.1658 C   0  0  0  0  0  0  0  0  0  0  0  0
   12.0781    0.0316   24.1532 C   0  0  0  0  0  0  0  0  0  0  0  0
    3.8974    1.9290   21.5048 C   0  0  0  0  0  0  0  0  0  0  0  0
   12.9147   -0.6032   23.2559 C   0  0  0  0  0  0  0  0  0  0  0  0
   11.0005   -1.4332   22.0435 C   0  0  0  0  0  0  0  0  0  0  0  0
    5.3288    1.2339   17.6062 C   0  0  0  0  0  0  0  0  0  0  0  0
    6.8449   -0.2893   18.3747 C   0  0  0  0  0  0  0  0  0  0  0  0
    4.8238    1.4906   18.9051 C   0  0  0  0  0  0  0  0  0  0  0  0
    5.3995    0.7732   19.9944 C   0  0  0  0  0  0  0  0  0  0  0  0
   10.7056   -0.0626   23.9890 C   0  0  0  0  0  0  0  0  0  0  0  0
   10.1421   -0.7766   22.9242 C   0  0  0  0  0  0  0  0  0  0  0  0
    6.4452   -0.1472   19.6975 C   0  0  0  0  0  0  0  0  0  0  0  0
   12.3697   -1.3298   22.2224 C   0  0  0  0  0  0  0  0  0  0  0  0
    4.8986    1.0232   21.2985 C   0  0  0  0  0  0  0  0  0  0  0  0
    8.2504    0.0168   21.4265 C   0  0  0  0  0  0  0  0  0  0  0  0
    9.9496    0.5589   24.9527 C   0  0  0  0  0  0  0  0  0  0  0  0
    5.7974    0.2895   28.6968 C   0  0  0  0  0  0  0  0  0  0  0  0
    5.0772    0.8711   27.5163 C   0  0  0  0  0  0  0  0  0  0  0  0
    8.0155   -2.1541   22.4325 C   0  0  0  0  0  0  0  0  0  0  0  0
    6.9880   -1.9367   21.3575 C   0  0  0  0  0  0  0  0  0  0  0  0
    7.8737   -0.1194   23.8825 C   0  0  0  0  0  0  0  0  0  0  0  0
    6.4702    1.3516   27.8565 C   0  0  0  0  0  0  0  0  0  0  0  0
    8.6253   -0.7606   22.6923 C   0  0  3  0  0  0  0  0  0  0  0  0
    7.6088    0.9304   26.9546 C   0  0  0  0  0  0  0  0  0  0  0  0
    6.6907    3.7268   28.8917 N   0  0  0  0  0  0  0  0  0  0  0  0
    6.3072    0.3768   17.3417 N   0  0  0  0  0  0  0  0  0  0  0  0
    7.2305   -0.6898   20.7785 N   0  0  0  0  0  0  0  0  0  0  0  0
    8.6625    1.0133   24.4989 N   0  0  3  0  0  0  0  0  0  0  0  0
    8.8314    1.0394   21.0790 O   0  0  0  0  0  0  0  0  0  0  0  0
    6.4559    2.2241   24.9990 O   0  0  0  0  0  0  0  0  0  0  0  0
    8.6119    3.1278   25.9583 O   0  0  0  0  0  0  0  0  0  0  0  0
    7.7725    2.0180   25.5623 S   0  0  0  0  0  0  0  0  0  0  0  0
   13.4285   -2.1410   21.1076 Cl  0  0  0  0  0  0  0  0  0  0  0  0
    5.4637    0.2451   22.7511 Cl  0  0  0  0  0  0  0  0  0  0  0  0
    2.5436    3.3504   20.6371 H   0  0  0  0  0  0  0  0  0  0  0  0
    3.3414    2.9737   18.3360 H   0  0  0  0  0  0  0  0  0  0  0  0
   12.5038    0.5986   24.9731 H   0  0  0  0  0  0  0  0  0  0  0  0
    3.5007    2.1328   22.5078 H   0  0  0  0  0  0  0  0  0  0  0  0
   13.9925   -0.5165   23.3773 H   0  0  0  0  0  0  0  0  0  0  0  0
   10.6052   -2.0169   21.2237 H   0  0  0  0  0  0  0  0  0  0  0  0
    4.9145    1.7510   16.7474 H   0  0  0  0  0  0  0  0  0  0  0  0
    7.6459   -0.9748   18.1001 H   0  0  0  0  0  0  0  0  0  0  0  0
    9.7866   -0.1187   25.8304 H   0  0  0  0  0  0  0  0  0  0  0  0
   10.4816    1.4567   25.3600 H   0  0  0  0  0  0  0  0  0  0  0  0
    5.4358    0.5518   29.6847 H   0  0  0  0  0  0  0  0  0  0  0  0
    6.1481   -0.7331   28.6181 H   0  0  0  0  0  0  0  0  0  0  0  0
    4.9448    0.2375   26.6469 H   0  0  0  0  0  0  0  0  0  0  0  0
    4.2331    1.5218   27.7145 H   0  0  0  0  0  0  0  0  0  0  0  0
    7.5167   -2.5459   23.3332 H   0  0  0  0  0  0  0  0  0  0  0  0
    8.7666   -2.9029   22.1426 H   0  0  0  0  0  0  0  0  0  0  0  0
    7.0601   -2.7250   20.5715 H   0  0  0  0  0  0  0  0  0  0  0  0
    5.9530   -1.9963   21.7709 H   0  0  0  0  0  0  0  0  0  0  0  0
    6.8882    0.2643   23.5640 H   0  0  0  0  0  0  0  0  0  0  0  0
    7.6667   -0.8657   24.6729 H   0  0  0  0  0  0  0  0  0  0  0  0
    7.4436   -0.0759   26.5599 H   0  0  0  0  0  0  0  0  0  0  0  0
    8.5609    0.9485   27.4918 H   0  0  0  0  0  0  0  0  0  0  0  0
  1 24  1  0  0  0  0
  1 27  3  0  0  0  0
  2  3  2  0  0  0  0
  2  5  1  0  0  0  0
  3 10  1  0  0  0  0
  4  6  2  0  0  0  0
  4 12  1  0  0  0  0
  5 16  2  0  0  0  0
  6 15  1  0  0  0  0
  7 13  1  0  0  0  0
  7 15  2  0  0  0  0
  8 10  2  0  0  0  0
  8 28  1  0  0  0  0
  9 14  1  0  0  0  0
  9 28  2  0  0  0  0
 10 11  1  0  0  0  0
 11 14  2  0  0  0  0
 11 16  1  0  0  0  0
 12 13  2  0  0  0  0
 12 18  1  0  0  0  0
 13 25  1  0  0  0  0
 14 29  1  0  0  0  0
 15 35  1  0  0  0  0
 16 36  1  0  0  0  0
 17 25  1  0  0  0  0
 17 29  1  0  0  0  0
 17 31  2  0  0  0  0
 18 30  1  0  0  0  0
 19 20  1  0  0  0  0
 19 24  1  0  0  0  0
 20 24  1  0  0  0  0
 21 22  1  0  0  0  0
 21 25  1  0  0  0  0
 22 29  1  0  0  0  0
 23 25  1  0  0  0  0
 23 30  1  0  0  0  0
 24 26  1  0  0  0  0
 26 34  1  0  0  0  0
 30 34  1  0  0  0  0
 32 34  2  0  0  0  0
 33 34  2  0  0  0  0
  2 37  1  0  0  0  0
  3 38  1  0  0  0  0
  4 39  1  0  0  0  0
  5 40  1  0  0  0  0
  6 41  1  0  0  0  0
  7 42  1  0  0  0  0
  8 43  1  0  0  0  0
  9 44  1  0  0  0  0
 18 45  1  0  0  0  0
 18 46  1  0  0  0  0
 19 47  1  0  0  0  0
 19 48  1  0  0  0  0
 20 49  1  0  0  0  0
 20 50  1  0  0  0  0
 21 51  1  0  0  0  0
 21 52  1  0  0  0  0
 22 53  1  0  0  0  0
 22 54  1  0  0  0  0
 23 55  1  0  0  0  0
 23 56  1  0  0  0  0
 26 57  1  0  0  0  0
 26 58  1  0  0  0  0
M  END
> <scaffold>
tetrahydroisoquinoline-5spiro-isoquinoline

> <compound>
MAT-POS-853c0ffa-5

> <compound_smiles>
c1cc2cncc(c2c(c1)Cl)N3CCC4(C3=O)CN(Cc5c4cc(cc5)Cl)S(=O)(=O)CC6(CC6)C#N

> <enantiomer_smiles>
c1cc2cncc(c2c(c1)Cl)N3CC[C@]4(C3=O)C[N@](Cc5c4cc(cc5)Cl)S(=O)(=O)CC6(CC6)C#N

> <clash_score>
0

> <docking_score>
3.4028234663852886e+38

> <overlap_score>
0.9774524569511414

> <MMFF_internal_energy>
194.84403193226711

> <docked_smiles>
c1cc2cncc(c2c(c1)Cl)N3CC[C@]4(C3=O)C[N@](Cc5c4cc(cc5)Cl)S(=O)(=O)CC6(CC6)C#N

$$$$
PET-UNK-94036022-5_1
  -OEChem-01042202313D

 56 61  0     1  0  0  0  0  0999 V2000
    3.3444    2.6278   20.4409 C   0  0  0  0  0  0  0  0  0  0  0  0
    3.8974    1.9290   21.5048 C   0  0  0  0  0  0  0  0  0  0  0  0
    3.7877    2.4205   19.1658 C   0  0  0  0  0  0  0  0  0  0  0  0
    4.8986    1.0232   21.2985 C   0  0  0  0  0  0  0  0  0  0  0  0
   12.0781    0.0316   24.1532 C   0  0  0  0  0  0  0  0  0  0  0  0
   12.9147   -0.6032   23.2559 C   0  0  0  0  0  0  0  0  0  0  0  0
   11.0005   -1.4332   22.0435 C   0  0  0  0  0  0  0  0  0  0  0  0
    5.3288    1.2339   17.6062 C   0  0  0  0  0  0  0  0  0  0  0  0
    6.8449   -0.2893   18.3747 C   0  0  0  0  0  0  0  0  0  0  0  0
    4.8238    1.4906   18.9051 C   0  0  0  0  0  0  0  0  0  0  0  0
    5.3995    0.7732   19.9944 C   0  0  0  0  0  0  0  0  0  0  0  0
   10.7056   -0.0626   23.9890 C   0  0  0  0  0  0  0  0  0  0  0  0
   10.1421   -0.7766   22.9242 C   0  0  0  0  0  0  0  0  0  0  0  0
    6.4452   -0.1472   19.6975 C   0  0  0  0  0  0  0  0  0  0  0  0
   12.3697   -1.3298   22.2224 C   0  0  0  0  0  0  0  0  0  0  0  0
    6.9880   -1.9367   21.3575 C   0  0  0  0  0  0  0  0  0  0  0  0
    8.2504    0.0168   21.4265 C   0  0  0  0  0  0  0  0  0  0  0  0
    9.9496    0.5589   24.9527 C   0  0  0  0  0  0  0  0  0  0  0  0
    8.0155   -2.1541   22.4325 C   0  0  0  0  0  0  0  0  0  0  0  0
   10.2666    5.3808   24.6324 C   0  0  0  0  0  0  0  0  0  0  0  0
    9.3445    5.9212   25.6871 C   0  0  0  0  0  0  0  0  0  0  0  0
    7.8737   -0.1194   23.8825 C   0  0  0  0  0  0  0  0  0  0  0  0
    8.6253   -0.7606   22.6923 C   0  0  1  0  0  0  0  0  0  0  0  0
    8.8034    5.0097   24.6122 C   0  0  0  0  0  0  0  0  0  0  0  0
    8.4018    3.5992   24.9813 C   0  0  0  0  0  0  0  0  0  0  0  0
    6.3072    0.3768   17.3417 N   0  0  0  0  0  0  0  0  0  0  0  0
    7.2305   -0.6898   20.7785 N   0  0  0  0  0  0  0  0  0  0  0  0
    8.6625    1.0133   24.4989 N   0  0  3  0  0  0  0  0  0  0  0  0
    6.1222   -2.7602   21.1043 O   0  0  0  0  0  0  0  0  0  0  0  0
    8.7910    1.0611   21.1020 O   0  0  0  0  0  0  0  0  0  0  0  0
    7.4262    2.5285   22.8067 O   0  0  0  0  0  0  0  0  0  0  0  0
    9.9336    2.7175   23.0568 O   0  0  0  0  0  0  0  0  0  0  0  0
    8.6218    2.4827   23.6200 S   0  0  0  0  0  0  0  0  0  0  0  0
   13.4285   -2.1416   21.1080 Cl  0  0  0  0  0  0  0  0  0  0  0  0
    7.8024    5.7589   23.3531 Cl  0  0  0  0  0  0  0  0  0  0  0  0
    2.5443    3.3508   20.6368 H   0  0  0  0  0  0  0  0  0  0  0  0
    3.5189    2.1137   22.5166 H   0  0  0  0  0  0  0  0  0  0  0  0
    3.3421    2.9744   18.3363 H   0  0  0  0  0  0  0  0  0  0  0  0
    5.3131    0.4893   22.1569 H   0  0  0  0  0  0  0  0  0  0  0  0
   12.5036    0.5928   24.9773 H   0  0  0  0  0  0  0  0  0  0  0  0
   13.9927   -0.5225   23.3814 H   0  0  0  0  0  0  0  0  0  0  0  0
   10.6045   -2.0211   21.2270 H   0  0  0  0  0  0  0  0  0  0  0  0
    4.9151    1.7511   16.7471 H   0  0  0  0  0  0  0  0  0  0  0  0
    7.6455   -0.9765   18.1038 H   0  0  0  0  0  0  0  0  0  0  0  0
    9.7608   -0.1291   25.8168 H   0  0  0  0  0  0  0  0  0  0  0  0
   10.4951    1.4388   25.3829 H   0  0  0  0  0  0  0  0  0  0  0  0
    7.5419   -2.5808   23.3241 H   0  0  0  0  0  0  0  0  0  0  0  0
    8.7461   -2.8785   22.0508 H   0  0  0  0  0  0  0  0  0  0  0  0
   10.6414    6.0755   23.8899 H   0  0  0  0  0  0  0  0  0  0  0  0
   10.9876    4.6295   24.9326 H   0  0  0  0  0  0  0  0  0  0  0  0
    9.4480    5.5310   26.6927 H   0  0  0  0  0  0  0  0  0  0  0  0
    9.1031    6.9769   25.6495 H   0  0  0  0  0  0  0  0  0  0  0  0
    6.8898    0.2774   23.5690 H   0  0  0  0  0  0  0  0  0  0  0  0
    7.6642   -0.8749   24.6614 H   0  0  0  0  0  0  0  0  0  0  0  0
    7.3473    3.5547   25.2674 H   0  0  0  0  0  0  0  0  0  0  0  0
    9.0096    3.2229   25.8085 H   0  0  0  0  0  0  0  0  0  0  0  0
  1  2  2  0  0  0  0
  1  3  1  0  0  0  0
  2  4  1  0  0  0  0
  3 10  2  0  0  0  0
  4 11  2  0  0  0  0
  5  6  2  0  0  0  0
  5 12  1  0  0  0  0
  6 15  1  0  0  0  0
  7 13  1  0  0  0  0
  7 15  2  0  0  0  0
  8 10  1  0  0  0  0
  8 26  2  0  0  0  0
  9 14  2  0  0  0  0
  9 26  1  0  0  0  0
 10 11  1  0  0  0  0
 11 14  1  0  0  0  0
 12 13  2  0  0  0  0
 12 18  1  0  0  0  0
 13 23  1  6  0  0  0
 14 27  1  0  0  0  0
 15 34  1  0  0  0  0
 16 19  1  0  0  0  0
 16 27  1  0  0  0  0
 16 29  2  0  0  0  0
 17 23  1  1  0  0  0
 17 27  1  0  0  0  0
 17 30  2  0  0  0  0
 18 28  1  0  0  0  0
 19 23  1  1  0  0  0
 20 21  1  0  0  0  0
 20 24  1  0  0  0  0
 21 24  1  0  0  0  0
 22 23  1  6  0  0  0
 22 28  1  0  0  0  0
 24 25  1  0  0  0  0
 24 35  1  0  0  0  0
 25 33  1  0  0  0  0
 28 33  1  0  0  0  0
 31 33  2  0  0  0  0
 32 33  2  0  0  0  0
  1 36  1  0  0  0  0
  2 37  1  0  0  0  0
  3 38  1  0  0  0  0
  4 39  1  0  0  0  0
  5 40  1  0  0  0  0
  6 41  1  0  0  0  0
  7 42  1  0  0  0  0
  8 43  1  0  0  0  0
  9 44  1  0  0  0  0
 18 45  1  0  0  0  0
 18 46  1  0  0  0  0
 19 47  1  0  0  0  0
 19 48  1  0  0  0  0
 20 49  1  0  0  0  0
 20 50  1  0  0  0  0
 21 51  1  0  0  0  0
 21 52  1  0  0  0  0
 22 53  1  0  0  0  0
 22 54  1  0  0  0  0
 25 55  1  0  0  0  0
 25 56  1  0  0  0  0
M  END
> <scaffold>
tetrahydroisoquinoline-5spiro-isoquinoline

> <compound>
PET-UNK-94036022-5

> <compound_smiles>
c1ccc2c(c1)cncc2N3C(=O)C[C@@]4(C3=O)CN(Cc5c4cc(cc5)Cl)S(=O)(=O)CC6(CC6)Cl

> <enantiomer_smiles>
c1ccc2c(c1)cncc2N3C(=O)C[C@@]4(C3=O)C[N@@](Cc5c4cc(cc5)Cl)S(=O)(=O)CC6(CC6)Cl

> <clash_score>
0

> <docking_score>
3.4028234663852886e+38

> <overlap_score>
1.0

> <MMFF_internal_energy>
83.54257823034544

> <docked_smiles>
c1ccc2c(c1)cncc2N3C(=O)C[C@@]4(C3=O)C[N@@](Cc5c4cc(cc5)Cl)S(=O)(=O)CC6(CC6)Cl

$$$$
ALP-POS-ecbed2ba-8_1
  -OEChem-01042202313D

 61 66  0     1  0  0  0  0  0999 V2000
    6.6886    2.6912   28.3830 C   0  0  0  0  0  0  0  0  0  0  0  0
    3.3444    2.6278   20.4409 C   0  0  0  0  0  0  0  0  0  0  0  0
    3.8974    1.9290   21.5048 C   0  0  0  0  0  0  0  0  0  0  0  0
    3.7877    2.4205   19.1658 C   0  0  0  0  0  0  0  0  0  0  0  0
    4.8986    1.0232   21.2985 C   0  0  0  0  0  0  0  0  0  0  0  0
   12.0781    0.0316   24.1532 C   0  0  0  0  0  0  0  0  0  0  0  0
   12.9147   -0.6032   23.2559 C   0  0  0  0  0  0  0  0  0  0  0  0
   11.0005   -1.4332   22.0435 C   0  0  0  0  0  0  0  0  0  0  0  0
    5.3288    1.2339   17.6062 C   0  0  0  0  0  0  0  0  0  0  0  0
    6.8449   -0.2893   18.3747 C   0  0  0  0  0  0  0  0  0  0  0  0
    4.8238    1.4906   18.9051 C   0  0  0  0  0  0  0  0  0  0  0  0
    5.3995    0.7732   19.9944 C   0  0  0  0  0  0  0  0  0  0  0  0
   10.7056   -0.0626   23.9890 C   0  0  0  0  0  0  0  0  0  0  0  0
   10.1421   -0.7766   22.9242 C   0  0  0  0  0  0  0  0  0  0  0  0
    6.4452   -0.1472   19.6975 C   0  0  0  0  0  0  0  0  0  0  0  0
   12.3697   -1.3298   22.2224 C   0  0  0  0  0  0  0  0  0  0  0  0
    8.2504    0.0168   21.4265 C   0  0  0  0  0  0  0  0  0  0  0  0
    9.9496    0.5589   24.9527 C   0  0  0  0  0  0  0  0  0  0  0  0
    4.6000    0.5833   28.6189 C   0  0  0  0  0  0  0  0  0  0  0  0
    5.0527    1.1241   27.2486 C   0  0  0  0  0  0  0  0  0  0  0  0
    6.0807    0.2944   28.9339 C   0  0  0  0  0  0  0  0  0  0  0  0
    8.0155   -2.1541   22.4325 C   0  0  0  0  0  0  0  0  0  0  0  0
    6.9880   -1.9367   21.3575 C   0  0  0  0  0  0  0  0  0  0  0  0
    7.8737   -0.1194   23.8825 C   0  0  0  0  0  0  0  0  0  0  0  0
    6.4702    1.3516   27.8565 C   0  0  0  0  0  0  0  0  0  0  0  0
    8.6253   -0.7606   22.6923 C   0  0  3  0  0  0  0  0  0  0  0  0
    7.6088    0.9304   26.9546 C   0  0  0  0  0  0  0  0  0  0  0  0
    6.8627    3.7589   28.8025 N   0  0  0  0  0  0  0  0  0  0  0  0
    6.3072    0.3768   17.3417 N   0  0  0  0  0  0  0  0  0  0  0  0
    7.2305   -0.6898   20.7785 N   0  0  0  0  0  0  0  0  0  0  0  0
    8.6625    1.0133   24.4989 N   0  0  3  0  0  0  0  0  0  0  0  0
    8.8314    1.0394   21.0790 O   0  0  0  0  0  0  0  0  0  0  0  0
    6.4559    2.2241   24.9990 O   0  0  0  0  0  0  0  0  0  0  0  0
    8.6119    3.1278   25.9583 O   0  0  0  0  0  0  0  0  0  0  0  0
    7.7725    2.0180   25.5623 S   0  0  0  0  0  0  0  0  0  0  0  0
   13.4285   -2.1410   21.1076 Cl  0  0  0  0  0  0  0  0  0  0  0  0
    2.5443    3.3508   20.6368 H   0  0  0  0  0  0  0  0  0  0  0  0
    3.5189    2.1137   22.5166 H   0  0  0  0  0  0  0  0  0  0  0  0
    3.3421    2.9744   18.3363 H   0  0  0  0  0  0  0  0  0  0  0  0
    5.3131    0.4893   22.1569 H   0  0  0  0  0  0  0  0  0  0  0  0
   12.5038    0.5986   24.9731 H   0  0  0  0  0  0  0  0  0  0  0  0
   13.9925   -0.5165   23.3773 H   0  0  0  0  0  0  0  0  0  0  0  0
   10.6052   -2.0169   21.2237 H   0  0  0  0  0  0  0  0  0  0  0  0
    4.9151    1.7511   16.7471 H   0  0  0  0  0  0  0  0  0  0  0  0
    7.6455   -0.9765   18.1038 H   0  0  0  0  0  0  0  0  0  0  0  0
    9.7866   -0.1187   25.8304 H   0  0  0  0  0  0  0  0  0  0  0  0
   10.4816    1.4567   25.3600 H   0  0  0  0  0  0  0  0  0  0  0  0
    4.1508    1.3440   29.2675 H   0  0  0  0  0  0  0  0  0  0  0  0
    3.9432   -0.2899   28.5896 H   0  0  0  0  0  0  0  0  0  0  0  0
    5.0161    0.3685   26.4540 H   0  0  0  0  0  0  0  0  0  0  0  0
    4.5178    2.0125   26.8989 H   0  0  0  0  0  0  0  0  0  0  0  0
    6.3870    0.5037   29.9635 H   0  0  0  0  0  0  0  0  0  0  0  0
    6.3803   -0.7326   28.6905 H   0  0  0  0  0  0  0  0  0  0  0  0
    7.5167   -2.5459   23.3332 H   0  0  0  0  0  0  0  0  0  0  0  0
    8.7666   -2.9029   22.1426 H   0  0  0  0  0  0  0  0  0  0  0  0
    7.0601   -2.7250   20.5715 H   0  0  0  0  0  0  0  0  0  0  0  0
    5.9530   -1.9963   21.7709 H   0  0  0  0  0  0  0  0  0  0  0  0
    6.8882    0.2643   23.5640 H   0  0  0  0  0  0  0  0  0  0  0  0
    7.6667   -0.8657   24.6729 H   0  0  0  0  0  0  0  0  0  0  0  0
    7.4436   -0.0759   26.5599 H   0  0  0  0  0  0  0  0  0  0  0  0
    8.5609    0.9485   27.4918 H   0  0  0  0  0  0  0  0  0  0  0  0
  1 25  1  0  0  0  0
  1 28  3  0  0  0  0
  2  3  2  0  0  0  0
  2  4  1  0  0  0  0
  3  5  1  0  0  0  0
  4 11  2  0  0  0  0
  5 12  2  0  0  0  0
  6  7  2  0  0  0  0
  6 13  1  0  0  0  0
  7 16  1  0  0  0  0
  8 14  1  0  0  0  0
  8 16  2  0  0  0  0
  9 11  1  0  0  0  0
  9 29  2  0  0  0  0
 10 15  2  0  0  0  0
 10 29  1  0  0  0  0
 11 12  1  0  0  0  0
 12 15  1  0  0  0  0
 13 14  2  0  0  0  0
 13 18  1  0  0  0  0
 14 26  1  0  0  0  0
 15 30  1  0  0  0  0
 16 36  1  0  0  0  0
 17 26  1  0  0  0  0
 17 30  1  0  0  0  0
 17 32  2  0  0  0  0
 18 31  1  0  0  0  0
 19 20  1  0  0  0  0
 19 21  1  0  0  0  0
 20 25  1  0  0  0  0
 21 25  1  0  0  0  0
 22 23  1  0  0  0  0
 22 26  1  0  0  0  0
 23 30  1  0  0  0  0
 24 26  1  0  0  0  0
 24 31  1  0  0  0  0
 25 27  1  0  0  0  0
 27 35  1  0  0  0  0
 31 35  1  0  0  0  0
 33 35  2  0  0  0  0
 34 35  2  0  0  0  0
  2 37  1  0  0  0  0
  3 38  1  0  0  0  0
  4 39  1  0  0  0  0
  5 40  1  0  0  0  0
  6 41  1  0  0  0  0
  7 42  1  0  0  0  0
  8 43  1  0  0  0  0
  9 44  1  0  0  0  0
 10 45  1  0  0  0  0
 18 46  1  0  0  0  0
 18 47  1  0  0  0  0
 19 48  1  0  0  0  0
 19 49  1  0  0  0  0
 20 50  1  0  0  0  0
 20 51  1  0  0  0  0
 21 52  1  0  0  0  0
 21 53  1  0  0  0  0
 22 54  1  0  0  0  0
 22 55  1  0  0  0  0
 23 56  1  0  0  0  0
 23 57  1  0  0  0  0
 24 58  1  0  0  0  0
 24 59  1  0  0  0  0
 27 60  1  0  0  0  0
 27 61  1  0  0  0  0
M  END
> <scaffold>
tetrahydroisoquinoline-5spiro-isoquinoline

> <compound>
ALP-POS-ecbed2ba-8

> <compound_smiles>
c1ccc2c(c1)cncc2N3CCC4(C3=O)CN(Cc5c4cc(cc5)Cl)S(=O)(=O)CC6(CCC6)C#N

> <enantiomer_smiles>
c1ccc2c(c1)cncc2N3CC[C@]4(C3=O)C[N@](Cc5c4cc(cc5)Cl)S(=O)(=O)CC6(CCC6)C#N

> <clash_score>
0

> <docking_score>
3.4028234663852886e+38

> <overlap_score>
0.9683722257614136

> <MMFF_internal_energy>
72.33195568695855

> <docked_smiles>
c1ccc2c(c1)cncc2N3CC[C@]4(C3=O)C[N@](Cc5c4cc(cc5)Cl)S(=O)(=O)CC6(CCC6)C#N

$$$$
PET-UNK-94036022-11_1
  -OEChem-01042202313D

 58 63  0     1  0  0  0  0  0999 V2000
    9.3574    6.2505   22.8051 C   0  0  0  0  0  0  0  0  0  0  0  0
    8.6716    5.6501   23.5863 C   0  0  0  0  0  0  0  0  0  0  0  0
    3.3444    2.6278   20.4409 C   0  0  0  0  0  0  0  0  0  0  0  0
    3.8974    1.9290   21.5048 C   0  0  0  0  0  0  0  0  0  0  0  0
    3.7877    2.4205   19.1658 C   0  0  0  0  0  0  0  0  0  0  0  0
    4.8986    1.0232   21.2985 C   0  0  0  0  0  0  0  0  0  0  0  0
   12.0781    0.0316   24.1532 C   0  0  0  0  0  0  0  0  0  0  0  0
   12.9147   -0.6032   23.2559 C   0  0  0  0  0  0  0  0  0  0  0  0
   11.0005   -1.4332   22.0435 C   0  0  0  0  0  0  0  0  0  0  0  0
    5.3288    1.2339   17.6062 C   0  0  0  0  0  0  0  0  0  0  0  0
    6.8449   -0.2893   18.3747 C   0  0  0  0  0  0  0  0  0  0  0  0
    4.8238    1.4906   18.9051 C   0  0  0  0  0  0  0  0  0  0  0  0
    5.3995    0.7732   19.9944 C   0  0  0  0  0  0  0  0  0  0  0  0
   10.7056   -0.0626   23.9890 C   0  0  0  0  0  0  0  0  0  0  0  0
   10.1421   -0.7766   22.9242 C   0  0  0  0  0  0  0  0  0  0  0  0
    6.4452   -0.1472   19.6975 C   0  0  0  0  0  0  0  0  0  0  0  0
   12.3697   -1.3298   22.2224 C   0  0  0  0  0  0  0  0  0  0  0  0
    6.9880   -1.9367   21.3575 C   0  0  0  0  0  0  0  0  0  0  0  0
    8.2504    0.0168   21.4265 C   0  0  0  0  0  0  0  0  0  0  0  0
    9.9496    0.5589   24.9527 C   0  0  0  0  0  0  0  0  0  0  0  0
    8.0155   -2.1541   22.4325 C   0  0  0  0  0  0  0  0  0  0  0  0
    7.0482    5.7470   25.5127 C   0  0  0  0  0  0  0  0  0  0  0  0
    6.3495    5.0646   24.3740 C   0  0  0  0  0  0  0  0  0  0  0  0
    7.8737   -0.1194   23.8825 C   0  0  0  0  0  0  0  0  0  0  0  0
    7.8485    4.9301   24.5232 C   0  0  0  0  0  0  0  0  0  0  0  0
    8.6253   -0.7606   22.6923 C   0  0  3  0  0  0  0  0  0  0  0  0
    8.4018    3.5992   24.9813 C   0  0  0  0  0  0  0  0  0  0  0  0
    6.3072    0.3768   17.3417 N   0  0  0  0  0  0  0  0  0  0  0  0
    7.2305   -0.6898   20.7785 N   0  0  0  0  0  0  0  0  0  0  0  0
    8.6625    1.0133   24.4989 N   0  0  3  0  0  0  0  0  0  0  0  0
    6.1222   -2.7602   21.1043 O   0  0  0  0  0  0  0  0  0  0  0  0
    8.7910    1.0611   21.1020 O   0  0  0  0  0  0  0  0  0  0  0  0
    7.4262    2.5285   22.8067 O   0  0  0  0  0  0  0  0  0  0  0  0
    9.9336    2.7175   23.0568 O   0  0  0  0  0  0  0  0  0  0  0  0
    8.6218    2.4827   23.6200 S   0  0  0  0  0  0  0  0  0  0  0  0
   13.4285   -2.1416   21.1080 Cl  0  0  0  0  0  0  0  0  0  0  0  0
    9.9659    6.7831   22.1122 H   0  0  0  0  0  0  0  0  0  0  0  0
    2.5443    3.3508   20.6368 H   0  0  0  0  0  0  0  0  0  0  0  0
    3.5189    2.1137   22.5166 H   0  0  0  0  0  0  0  0  0  0  0  0
    3.3421    2.9744   18.3363 H   0  0  0  0  0  0  0  0  0  0  0  0
    5.3131    0.4893   22.1569 H   0  0  0  0  0  0  0  0  0  0  0  0
   12.5036    0.5928   24.9773 H   0  0  0  0  0  0  0  0  0  0  0  0
   13.9927   -0.5225   23.3814 H   0  0  0  0  0  0  0  0  0  0  0  0
   10.6045   -2.0211   21.2270 H   0  0  0  0  0  0  0  0  0  0  0  0
    4.9151    1.7511   16.7471 H   0  0  0  0  0  0  0  0  0  0  0  0
    7.6455   -0.9765   18.1038 H   0  0  0  0  0  0  0  0  0  0  0  0
    9.7608   -0.1291   25.8168 H   0  0  0  0  0  0  0  0  0  0  0  0
   10.4951    1.4388   25.3829 H   0  0  0  0  0  0  0  0  0  0  0  0
    7.5419   -2.5808   23.3241 H   0  0  0  0  0  0  0  0  0  0  0  0
    8.7461   -2.8785   22.0508 H   0  0  0  0  0  0  0  0  0  0  0  0
    7.1206    6.8283   25.4818 H   0  0  0  0  0  0  0  0  0  0  0  0
    6.8936    5.3485   26.5088 H   0  0  0  0  0  0  0  0  0  0  0  0
    5.7260    4.2093   24.6076 H   0  0  0  0  0  0  0  0  0  0  0  0
    5.9536    5.6897   23.5817 H   0  0  0  0  0  0  0  0  0  0  0  0
    6.8898    0.2774   23.5690 H   0  0  0  0  0  0  0  0  0  0  0  0
    7.6642   -0.8749   24.6614 H   0  0  0  0  0  0  0  0  0  0  0  0
    7.7223    3.1154   25.6884 H   0  0  0  0  0  0  0  0  0  0  0  0
    9.3783    3.7242   25.4570 H   0  0  0  0  0  0  0  0  0  0  0  0
  1  2  3  0  0  0  0
  2 25  1  0  0  0  0
  3  4  2  0  0  0  0
  3  5  1  0  0  0  0
  4  6  1  0  0  0  0
  5 12  2  0  0  0  0
  6 13  2  0  0  0  0
  7  8  2  0  0  0  0
  7 14  1  0  0  0  0
  8 17  1  0  0  0  0
  9 15  1  0  0  0  0
  9 17  2  0  0  0  0
 10 12  1  0  0  0  0
 10 28  2  0  0  0  0
 11 16  2  0  0  0  0
 11 28  1  0  0  0  0
 12 13  1  0  0  0  0
 13 16  1  0  0  0  0
 14 15  2  0  0  0  0
 14 20  1  0  0  0  0
 15 26  1  0  0  0  0
 16 29  1  0  0  0  0
 17 36  1  0  0  0  0
 18 21  1  0  0  0  0
 18 29  1  0  0  0  0
 18 31  2  0  0  0  0
 19 26  1  0  0  0  0
 19 29  1  0  0  0  0
 19 32  2  0  0  0  0
 20 30  1  0  0  0  0
 21 26  1  0  0  0  0
 22 23  1  0  0  0  0
 22 25  1  0  0  0  0
 23 25  1  0  0  0  0
 24 26  1  0  0  0  0
 24 30  1  0  0  0  0
 25 27  1  0  0  0  0
 27 35  1  0  0  0  0
 30 35  1  0  0  0  0
 33 35  2  0  0  0  0
 34 35  2  0  0  0  0
  1 37  1  0  0  0  0
  3 38  1  0  0  0  0
  4 39  1  0  0  0  0
  5 40  1  0  0  0  0
  6 41  1  0  0  0  0
  7 42  1  0  0  0  0
  8 43  1  0  0  0  0
  9 44  1  0  0  0  0
 10 45  1  0  0  0  0
 11 46  1  0  0  0  0
 20 47  1  0  0  0  0
 20 48  1  0  0  0  0
 21 49  1  0  0  0  0
 21 50  1  0  0  0  0
 22 51  1  0  0  0  0
 22 52  1  0  0  0  0
 23 53  1  0  0  0  0
 23 54  1  0  0  0  0
 24 55  1  0  0  0  0
 24 56  1  0  0  0  0
 27 57  1  0  0  0  0
 27 58  1  0  0  0  0
M  END
> <scaffold>
tetrahydroisoquinoline-5spiro-isoquinoline

> <compound>
PET-UNK-94036022-11

> <compound_smiles>
C#CC1(CC1)CS(=O)(=O)N2Cc3ccc(cc3C4(C2)CC(=O)N(C4=O)c5cncc6c5cccc6)Cl

> <enantiomer_smiles>
C#CC1(CC1)CS(=O)(=O)[N@@]2Cc3ccc(cc3[C@]4(C2)CC(=O)N(C4=O)c5cncc6c5cccc6)Cl

> <clash_score>
0

> <docking_score>
3.4028234663852886e+38

> <overlap_score>
1.0

> <MMFF_internal_energy>
94.28297928956488

> <docked_smiles>
C#CC1(CC1)CS(=O)(=O)[N@@]2Cc3ccc(cc3[C@]4(C2)CC(=O)N(C4=O)c5cncc6c5cccc6)Cl

$$$$
EDJ-MED-fed7ac0b-3_1
  -OEChem-01042202313D

 56 61  0     1  0  0  0  0  0999 V2000
    6.8204    3.8026   27.6167 C   0  0  0  0  0  0  0  0  0  0  0  0
    3.3444    2.6278   20.4409 C   0  0  0  0  0  0  0  0  0  0  0  0
    3.8974    1.9290   21.5048 C   0  0  0  0  0  0  0  0  0  0  0  0
    3.7877    2.4205   19.1658 C   0  0  0  0  0  0  0  0  0  0  0  0
    4.8986    1.0232   21.2985 C   0  0  0  0  0  0  0  0  0  0  0  0
   12.0781    0.0316   24.1532 C   0  0  0  0  0  0  0  0  0  0  0  0
   12.9147   -0.6032   23.2559 C   0  0  0  0  0  0  0  0  0  0  0  0
   11.0005   -1.4332   22.0435 C   0  0  0  0  0  0  0  0  0  0  0  0
    5.3288    1.2339   17.6062 C   0  0  0  0  0  0  0  0  0  0  0  0
    6.8449   -0.2893   18.3747 C   0  0  0  0  0  0  0  0  0  0  0  0
    4.8238    1.4906   18.9051 C   0  0  0  0  0  0  0  0  0  0  0  0
    5.3995    0.7732   19.9944 C   0  0  0  0  0  0  0  0  0  0  0  0
   10.7056   -0.0626   23.9890 C   0  0  0  0  0  0  0  0  0  0  0  0
   10.1421   -0.7766   22.9242 C   0  0  0  0  0  0  0  0  0  0  0  0
    6.4452   -0.1472   19.6975 C   0  0  0  0  0  0  0  0  0  0  0  0
   12.3697   -1.3298   22.2224 C   0  0  0  0  0  0  0  0  0  0  0  0
    9.9496    0.5589   24.9527 C   0  0  0  0  0  0  0  0  0  0  0  0
    8.2504    0.0168   21.4265 C   0  0  0  0  0  0  0  0  0  0  0  0
    4.8634    2.2201   27.7640 C   0  0  0  0  0  0  0  0  0  0  0  0
    4.7326    2.9730   26.4730 C   0  0  0  0  0  0  0  0  0  0  0  0
    8.0155   -2.1541   22.4325 C   0  0  0  0  0  0  0  0  0  0  0  0
    7.8737   -0.1194   23.8825 C   0  0  0  0  0  0  0  0  0  0  0  0
    6.1054    2.6925   27.0421 C   0  0  0  0  0  0  0  0  0  0  0  0
    8.6253   -0.7606   22.6923 C   0  0  3  0  0  0  0  0  0  0  0  0
    6.9645    1.6571   26.3514 C   0  0  0  0  0  0  0  0  0  0  0  0
    7.3965    4.6970   28.0797 N   0  0  0  0  0  0  0  0  0  0  0  0
    6.3072    0.3768   17.3417 N   0  0  0  0  0  0  0  0  0  0  0  0
    6.9880   -1.9367   21.3575 N   0  0  0  0  0  0  0  0  0  0  0  0
    7.2305   -0.6898   20.7785 N   0  0  0  0  0  0  0  0  0  0  0  0
    8.6625    1.0133   24.4989 N   0  0  0  0  0  0  0  0  0  0  0  0
   10.3207    0.7541   26.1191 O   0  0  0  0  0  0  0  0  0  0  0  0
    8.7718    1.0827   21.1114 O   0  0  0  0  0  0  0  0  0  0  0  0
    6.9249    2.7646   23.9852 O   0  0  0  0  0  0  0  0  0  0  0  0
    8.8512    3.2725   25.5399 O   0  0  0  0  0  0  0  0  0  0  0  0
    7.8703    2.3608   24.9994 S   0  0  0  0  0  0  0  0  0  0  0  0
   13.4289   -2.1484   21.1134 Cl  0  0  0  0  0  0  0  0  0  0  0  0
    2.5443    3.3508   20.6368 H   0  0  0  0  0  0  0  0  0  0  0  0
    3.5189    2.1137   22.5166 H   0  0  0  0  0  0  0  0  0  0  0  0
    3.3421    2.9744   18.3363 H   0  0  0  0  0  0  0  0  0  0  0  0
    5.3131    0.4893   22.1569 H   0  0  0  0  0  0  0  0  0  0  0  0
   12.5193    0.5902   24.9738 H   0  0  0  0  0  0  0  0  0  0  0  0
   13.9921   -0.5273   23.3847 H   0  0  0  0  0  0  0  0  0  0  0  0
   10.6094   -2.0271   21.2303 H   0  0  0  0  0  0  0  0  0  0  0  0
    4.9151    1.7511   16.7471 H   0  0  0  0  0  0  0  0  0  0  0  0
    7.6455   -0.9765   18.1038 H   0  0  0  0  0  0  0  0  0  0  0  0
    4.5596    2.7263   28.6734 H   0  0  0  0  0  0  0  0  0  0  0  0
    4.6294    1.1618   27.7549 H   0  0  0  0  0  0  0  0  0  0  0  0
    4.4100    2.4188   25.5991 H   0  0  0  0  0  0  0  0  0  0  0  0
    4.3403    3.9826   26.5188 H   0  0  0  0  0  0  0  0  0  0  0  0
    8.7585   -2.8627   22.0525 H   0  0  0  0  0  0  0  0  0  0  0  0
    7.5473   -2.5967   23.3130 H   0  0  0  0  0  0  0  0  0  0  0  0
    6.9048    0.2984   23.5570 H   0  0  0  0  0  0  0  0  0  0  0  0
    7.6413   -0.8736   24.6524 H   0  0  0  0  0  0  0  0  0  0  0  0
    6.3512    0.8492   25.9427 H   0  0  0  0  0  0  0  0  0  0  0  0
    7.6964    1.2312   27.0431 H   0  0  0  0  0  0  0  0  0  0  0  0
    7.1106   -2.6630   20.6437 H   0  0  0  0  0  0  0  0  0  0  0  0
  1 23  1  0  0  0  0
  1 26  3  0  0  0  0
  2  3  2  0  0  0  0
  2  4  1  0  0  0  0
  3  5  1  0  0  0  0
  4 11  2  0  0  0  0
  5 12  2  0  0  0  0
  6  7  2  0  0  0  0
  6 13  1  0  0  0  0
  7 16  1  0  0  0  0
  8 14  1  0  0  0  0
  8 16  2  0  0  0  0
  9 11  1  0  0  0  0
  9 27  2  0  0  0  0
 10 15  2  0  0  0  0
 10 27  1  0  0  0  0
 11 12  1  0  0  0  0
 12 15  1  0  0  0  0
 13 14  2  0  0  0  0
 13 17  1  0  0  0  0
 14 24  1  0  0  0  0
 15 29  1  0  0  0  0
 16 36  1  0  0  0  0
 17 30  1  0  0  0  0
 17 31  2  0  0  0  0
 18 24  1  0  0  0  0
 18 29  1  0  0  0  0
 18 32  2  0  0  0  0
 19 20  1  0  0  0  0
 19 23  1  0  0  0  0
 20 23  1  0  0  0  0
 21 24  1  0  0  0  0
 21 28  1  0  0  0  0
 22 24  1  0  0  0  0
 22 30  1  0  0  0  0
 23 25  1  0  0  0  0
 25 35  1  0  0  0  0
 28 29  1  0  0  0  0
 30 35  1  0  0  0  0
 33 35  2  0  0  0  0
 34 35  2  0  0  0  0
  2 37  1  0  0  0  0
  3 38  1  0  0  0  0
  4 39  1  0  0  0  0
  5 40  1  0  0  0  0
  6 41  1  0  0  0  0
  7 42  1  0  0  0  0
  8 43  1  0  0  0  0
  9 44  1  0  0  0  0
 10 45  1  0  0  0  0
 19 46  1  0  0  0  0
 19 47  1  0  0  0  0
 20 48  1  0  0  0  0
 20 49  1  0  0  0  0
 21 50  1  0  0  0  0
 21 51  1  0  0  0  0
 22 52  1  0  0  0  0
 22 53  1  0  0  0  0
 25 54  1  0  0  0  0
 25 55  1  0  0  0  0
 28 56  1  0  0  0  0
M  END
> <scaffold>
tetrahydroisoquinoline-5spiro-isoquinoline

> <compound>
EDJ-MED-fed7ac0b-3

> <compound_smiles>
c1ccc2c(c1)cncc2N3C(=O)C4(CN3)CN(C(=O)c5c4cc(cc5)Cl)S(=O)(=O)CC6(CC6)C#N

> <enantiomer_smiles>
c1ccc2c(c1)cncc2N3C(=O)[C@]4(CN3)CN(C(=O)c5c4cc(cc5)Cl)S(=O)(=O)CC6(CC6)C#N

> <clash_score>
0

> <docking_score>
3.4028234663852886e+38

> <overlap_score>
0.9813718199729919

> <MMFF_internal_energy>
130.16147192768707

> <docked_smiles>
c1ccc2c(c1)cncc2N3C(=O)[C@]4(CN3)CN(C(=O)c5c4cc(cc5)Cl)S(=O)(=O)CC6(CC6)C#N

$$$$
MAT-POS-853c0ffa-13_1
  -OEChem-01042202313D

 58 63  0     1  0  0  0  0  0999 V2000
    6.5923    2.6670   28.4298 C   0  0  0  0  0  0  0  0  0  0  0  0
    3.7877    2.4205   19.1658 C   0  0  0  0  0  0  0  0  0  0  0  0
   12.0781    0.0316   24.1532 C   0  0  0  0  0  0  0  0  0  0  0  0
    3.3444    2.6278   20.4409 C   0  0  0  0  0  0  0  0  0  0  0  0
   12.9147   -0.6032   23.2559 C   0  0  0  0  0  0  0  0  0  0  0  0
    4.8986    1.0232   21.2985 C   0  0  0  0  0  0  0  0  0  0  0  0
   11.0005   -1.4332   22.0435 C   0  0  0  0  0  0  0  0  0  0  0  0
    5.3288    1.2339   17.6062 C   0  0  0  0  0  0  0  0  0  0  0  0
    6.8449   -0.2893   18.3747 C   0  0  0  0  0  0  0  0  0  0  0  0
    4.8238    1.4906   18.9051 C   0  0  0  0  0  0  0  0  0  0  0  0
    5.3995    0.7732   19.9944 C   0  0  0  0  0  0  0  0  0  0  0  0
   10.7056   -0.0626   23.9890 C   0  0  0  0  0  0  0  0  0  0  0  0
   10.1421   -0.7766   22.9242 C   0  0  0  0  0  0  0  0  0  0  0  0
    6.4452   -0.1472   19.6975 C   0  0  0  0  0  0  0  0  0  0  0  0
    3.8974    1.9290   21.5048 C   0  0  0  0  0  0  0  0  0  0  0  0
   12.3697   -1.3298   22.2224 C   0  0  0  0  0  0  0  0  0  0  0  0
    8.2504    0.0168   21.4265 C   0  0  0  0  0  0  0  0  0  0  0  0
    9.9496    0.5589   24.9527 C   0  0  0  0  0  0  0  0  0  0  0  0
    5.7974    0.2895   28.6968 C   0  0  0  0  0  0  0  0  0  0  0  0
    5.0772    0.8711   27.5163 C   0  0  0  0  0  0  0  0  0  0  0  0
    8.0155   -2.1541   22.4325 C   0  0  0  0  0  0  0  0  0  0  0  0
    6.9880   -1.9367   21.3575 C   0  0  0  0  0  0  0  0  0  0  0  0
    7.8737   -0.1194   23.8825 C   0  0  0  0  0  0  0  0  0  0  0  0
    6.4702    1.3516   27.8565 C   0  0  0  0  0  0  0  0  0  0  0  0
    8.6253   -0.7606   22.6923 C   0  0  3  0  0  0  0  0  0  0  0  0
    7.6088    0.9304   26.9546 C   0  0  0  0  0  0  0  0  0  0  0  0
    6.6907    3.7268   28.8917 N   0  0  0  0  0  0  0  0  0  0  0  0
    6.3072    0.3768   17.3417 N   0  0  0  0  0  0  0  0  0  0  0  0
    7.2305   -0.6898   20.7785 N   0  0  0  0  0  0  0  0  0  0  0  0
    8.6625    1.0133   24.4989 N   0  0  3  0  0  0  0  0  0  0  0  0
    8.8314    1.0394   21.0790 O   0  0  0  0  0  0  0  0  0  0  0  0
    6.4559    2.2241   24.9990 O   0  0  0  0  0  0  0  0  0  0  0  0
    8.6119    3.1278   25.9583 O   0  0  0  0  0  0  0  0  0  0  0  0
    3.4330    2.1555   22.7513 F   0  0  0  0  0  0  0  0  0  0  0  0
    7.7725    2.0180   25.5623 S   0  0  0  0  0  0  0  0  0  0  0  0
   13.4285   -2.1410   21.1076 Cl  0  0  0  0  0  0  0  0  0  0  0  0
    3.3411    2.9735   18.3363 H   0  0  0  0  0  0  0  0  0  0  0  0
   12.5038    0.5986   24.9731 H   0  0  0  0  0  0  0  0  0  0  0  0
    2.5441    3.3506   20.6360 H   0  0  0  0  0  0  0  0  0  0  0  0
   13.9925   -0.5165   23.3773 H   0  0  0  0  0  0  0  0  0  0  0  0
    5.3117    0.4882   22.1567 H   0  0  0  0  0  0  0  0  0  0  0  0
   10.6052   -2.0169   21.2237 H   0  0  0  0  0  0  0  0  0  0  0  0
    4.9147    1.7515   16.7472 H   0  0  0  0  0  0  0  0  0  0  0  0
    7.6456   -0.9763   18.1039 H   0  0  0  0  0  0  0  0  0  0  0  0
    9.7866   -0.1187   25.8304 H   0  0  0  0  0  0  0  0  0  0  0  0
   10.4816    1.4567   25.3600 H   0  0  0  0  0  0  0  0  0  0  0  0
    5.4358    0.5518   29.6847 H   0  0  0  0  0  0  0  0  0  0  0  0
    6.1481   -0.7331   28.6181 H   0  0  0  0  0  0  0  0  0  0  0  0
    4.9448    0.2375   26.6469 H   0  0  0  0  0  0  0  0  0  0  0  0
    4.2331    1.5218   27.7145 H   0  0  0  0  0  0  0  0  0  0  0  0
    7.5167   -2.5459   23.3332 H   0  0  0  0  0  0  0  0  0  0  0  0
    8.7666   -2.9029   22.1426 H   0  0  0  0  0  0  0  0  0  0  0  0
    7.0601   -2.7250   20.5715 H   0  0  0  0  0  0  0  0  0  0  0  0
    5.9530   -1.9963   21.7709 H   0  0  0  0  0  0  0  0  0  0  0  0
    6.8882    0.2643   23.5640 H   0  0  0  0  0  0  0  0  0  0  0  0
    7.6667   -0.8657   24.6729 H   0  0  0  0  0  0  0  0  0  0  0  0
    7.4436   -0.0759   26.5599 H   0  0  0  0  0  0  0  0  0  0  0  0
    8.5609    0.9485   27.4918 H   0  0  0  0  0  0  0  0  0  0  0  0
  1 24  1  0  0  0  0
  1 27  3  0  0  0  0
  2  4  2  0  0  0  0
  2 10  1  0  0  0  0
  3  5  2  0  0  0  0
  3 12  1  0  0  0  0
  4 15  1  0  0  0  0
  5 16  1  0  0  0  0
  6 11  1  0  0  0  0
  6 15  2  0  0  0  0
  7 13  1  0  0  0  0
  7 16  2  0  0  0  0
  8 10  2  0  0  0  0
  8 28  1  0  0  0  0
  9 14  1  0  0  0  0
  9 28  2  0  0  0  0
 10 11  1  0  0  0  0
 11 14  2  0  0  0  0
 12 13  2  0  0  0  0
 12 18  1  0  0  0  0
 13 25  1  0  0  0  0
 14 29  1  0  0  0  0
 15 34  1  0  0  0  0
 16 36  1  0  0  0  0
 17 25  1  0  0  0  0
 17 29  1  0  0  0  0
 17 31  2  0  0  0  0
 18 30  1  0  0  0  0
 19 20  1  0  0  0  0
 19 24  1  0  0  0  0
 20 24  1  0  0  0  0
 21 22  1  0  0  0  0
 21 25  1  0  0  0  0
 22 29  1  0  0  0  0
 23 25  1  0  0  0  0
 23 30  1  0  0  0  0
 24 26  1  0  0  0  0
 26 35  1  0  0  0  0
 30 35  1  0  0  0  0
 32 35  2  0  0  0  0
 33 35  2  0  0  0  0
  2 37  1  0  0  0  0
  3 38  1  0  0  0  0
  4 39  1  0  0  0  0
  5 40  1  0  0  0  0
  6 41  1  0  0  0  0
  7 42  1  0  0  0  0
  8 43  1  0  0  0  0
  9 44  1  0  0  0  0
 18 45  1  0  0  0  0
 18 46  1  0  0  0  0
 19 47  1  0  0  0  0
 19 48  1  0  0  0  0
 20 49  1  0  0  0  0
 20 50  1  0  0  0  0
 21 51  1  0  0  0  0
 21 52  1  0  0  0  0
 22 53  1  0  0  0  0
 22 54  1  0  0  0  0
 23 55  1  0  0  0  0
 23 56  1  0  0  0  0
 26 57  1  0  0  0  0
 26 58  1  0  0  0  0
M  END
> <scaffold>
tetrahydroisoquinoline-5spiro-isoquinoline

> <compound>
MAT-POS-853c0ffa-13

> <compound_smiles>
c1cc2cncc(c2cc1F)N3CCC4(C3=O)CN(Cc5c4cc(cc5)Cl)S(=O)(=O)CC6(CC6)C#N

> <enantiomer_smiles>
c1cc2cncc(c2cc1F)N3CC[C@]4(C3=O)C[N@](Cc5c4cc(cc5)Cl)S(=O)(=O)CC6(CC6)C#N

> <clash_score>
0

> <docking_score>
3.4028234663852886e+38

> <overlap_score>
0.9789937734603882

> <MMFF_internal_energy>
108.89763062645935

> <docked_smiles>
c1cc2cncc(c2cc1F)N3CC[C@]4(C3=O)C[N@](Cc5c4cc(cc5)Cl)S(=O)(=O)CC6(CC6)C#N

$$$$
MAT-POS-c2d406ed-3_1
  -OEChem-01042202313D

 56 61  0     1  0  0  0  0  0999 V2000
    8.1042    5.6927   24.3787 C   0  0  0  0  0  0  0  0  0  0  0  0
    3.3444    2.6278   20.4409 C   0  0  0  0  0  0  0  0  0  0  0  0
    3.8974    1.9290   21.5048 C   0  0  0  0  0  0  0  0  0  0  0  0
    3.7877    2.4205   19.1658 C   0  0  0  0  0  0  0  0  0  0  0  0
    4.8986    1.0232   21.2985 C   0  0  0  0  0  0  0  0  0  0  0  0
   12.0781    0.0316   24.1532 C   0  0  0  0  0  0  0  0  0  0  0  0
   12.9147   -0.6032   23.2559 C   0  0  0  0  0  0  0  0  0  0  0  0
   11.0005   -1.4332   22.0435 C   0  0  0  0  0  0  0  0  0  0  0  0
    5.3288    1.2339   17.6062 C   0  0  0  0  0  0  0  0  0  0  0  0
    6.8449   -0.2893   18.3747 C   0  0  0  0  0  0  0  0  0  0  0  0
    4.8238    1.4906   18.9051 C   0  0  0  0  0  0  0  0  0  0  0  0
    5.3995    0.7732   19.9944 C   0  0  0  0  0  0  0  0  0  0  0  0
   10.7056   -0.0626   23.9890 C   0  0  0  0  0  0  0  0  0  0  0  0
   10.1421   -0.7766   22.9242 C   0  0  0  0  0  0  0  0  0  0  0  0
    6.4452   -0.1472   19.6975 C   0  0  0  0  0  0  0  0  0  0  0  0
   12.3697   -1.3298   22.2224 C   0  0  0  0  0  0  0  0  0  0  0  0
    8.2504    0.0168   21.4265 C   0  0  0  0  0  0  0  0  0  0  0  0
    6.9880   -1.9367   21.3575 C   0  0  0  0  0  0  0  0  0  0  0  0
    9.9496    0.5589   24.9527 C   0  0  0  0  0  0  0  0  0  0  0  0
    6.4142    5.2777   26.2029 C   0  0  0  0  0  0  0  0  0  0  0  0
    5.8496    4.7108   24.9339 C   0  0  0  0  0  0  0  0  0  0  0  0
    7.8737   -0.1194   23.8825 C   0  0  0  0  0  0  0  0  0  0  0  0
    7.3472    4.7356   25.1434 C   0  0  0  0  0  0  0  0  0  0  0  0
    8.6253   -0.7606   22.6923 C   0  0  3  0  0  0  0  0  0  0  0  0
    8.0497    3.4245   25.4167 C   0  0  0  0  0  0  0  0  0  0  0  0
    8.7141    6.4638   23.7626 N   0  0  0  0  0  0  0  0  0  0  0  0
    6.3072    0.3768   17.3417 N   0  0  0  0  0  0  0  0  0  0  0  0
    8.0155   -2.1541   22.4325 N   0  0  0  0  0  0  0  0  0  0  0  0
    7.2305   -0.6898   20.7785 N   0  0  0  0  0  0  0  0  0  0  0  0
    8.6625    1.0133   24.4989 N   0  0  3  0  0  0  0  0  0  0  0  0
    8.7992    1.0396   21.0751 O   0  0  0  0  0  0  0  0  0  0  0  0
    7.2903    2.5937   23.0586 O   0  0  0  0  0  0  0  0  0  0  0  0
    9.7392    3.0754   23.4542 O   0  0  0  0  0  0  0  0  0  0  0  0
    5.8223   -3.0894   21.1498 S   0  0  0  0  0  0  0  0  0  0  0  0
    8.4592    2.5795   23.9111 S   0  0  0  0  0  0  0  0  0  0  0  0
   13.4285   -2.1446   21.1104 Cl  0  0  0  0  0  0  0  0  0  0  0  0
    2.5443    3.3508   20.6368 H   0  0  0  0  0  0  0  0  0  0  0  0
    3.5189    2.1137   22.5166 H   0  0  0  0  0  0  0  0  0  0  0  0
    3.3421    2.9744   18.3363 H   0  0  0  0  0  0  0  0  0  0  0  0
    5.3131    0.4893   22.1569 H   0  0  0  0  0  0  0  0  0  0  0  0
   12.5029    0.5934   24.9777 H   0  0  0  0  0  0  0  0  0  0  0  0
   13.9924   -0.5228   23.3819 H   0  0  0  0  0  0  0  0  0  0  0  0
   10.6068   -2.0239   21.2274 H   0  0  0  0  0  0  0  0  0  0  0  0
    4.9151    1.7511   16.7471 H   0  0  0  0  0  0  0  0  0  0  0  0
    7.6455   -0.9765   18.1038 H   0  0  0  0  0  0  0  0  0  0  0  0
    9.7606   -0.1284   25.8164 H   0  0  0  0  0  0  0  0  0  0  0  0
   10.4949    1.4392   25.3807 H   0  0  0  0  0  0  0  0  0  0  0  0
    6.3486    6.3504   26.3464 H   0  0  0  0  0  0  0  0  0  0  0  0
    6.2766    4.7066   27.1137 H   0  0  0  0  0  0  0  0  0  0  0  0
    5.3328    3.7600   24.9950 H   0  0  0  0  0  0  0  0  0  0  0  0
    5.4054    5.4043   24.2288 H   0  0  0  0  0  0  0  0  0  0  0  0
    6.8888    0.2726   23.5653 H   0  0  0  0  0  0  0  0  0  0  0  0
    7.6597   -0.8812   24.6550 H   0  0  0  0  0  0  0  0  0  0  0  0
    7.4130    2.7535   25.9999 H   0  0  0  0  0  0  0  0  0  0  0  0
    8.9845    3.5872   25.9598 H   0  0  0  0  0  0  0  0  0  0  0  0
    8.2348   -2.9494   22.8303 H   0  0  0  0  0  0  0  0  0  0  0  0
  1 23  1  0  0  0  0
  1 26  3  0  0  0  0
  2  3  2  0  0  0  0
  2  4  1  0  0  0  0
  3  5  1  0  0  0  0
  4 11  2  0  0  0  0
  5 12  2  0  0  0  0
  6  7  2  0  0  0  0
  6 13  1  0  0  0  0
  7 16  1  0  0  0  0
  8 14  1  0  0  0  0
  8 16  2  0  0  0  0
  9 11  1  0  0  0  0
  9 27  2  0  0  0  0
 10 15  2  0  0  0  0
 10 27  1  0  0  0  0
 11 12  1  0  0  0  0
 12 15  1  0  0  0  0
 13 14  2  0  0  0  0
 13 19  1  0  0  0  0
 14 24  1  0  0  0  0
 15 29  1  0  0  0  0
 16 36  1  0  0  0  0
 17 24  1  0  0  0  0
 17 29  1  0  0  0  0
 17 31  2  0  0  0  0
 18 28  1  0  0  0  0
 18 29  1  0  0  0  0
 18 34  2  0  0  0  0
 19 30  1  0  0  0  0
 20 21  1  0  0  0  0
 20 23  1  0  0  0  0
 21 23  1  0  0  0  0
 22 24  1  0  0  0  0
 22 30  1  0  0  0  0
 23 25  1  0  0  0  0
 24 28  1  0  0  0  0
 25 35  1  0  0  0  0
 30 35  1  0  0  0  0
 32 35  2  0  0  0  0
 33 35  2  0  0  0  0
  2 37  1  0  0  0  0
  3 38  1  0  0  0  0
  4 39  1  0  0  0  0
  5 40  1  0  0  0  0
  6 41  1  0  0  0  0
  7 42  1  0  0  0  0
  8 43  1  0  0  0  0
  9 44  1  0  0  0  0
 10 45  1  0  0  0  0
 19 46  1  0  0  0  0
 19 47  1  0  0  0  0
 20 48  1  0  0  0  0
 20 49  1  0  0  0  0
 21 50  1  0  0  0  0
 21 51  1  0  0  0  0
 22 52  1  0  0  0  0
 22 53  1  0  0  0  0
 25 54  1  0  0  0  0
 25 55  1  0  0  0  0
 28 56  1  0  0  0  0
M  END
> <scaffold>
tetrahydroisoquinoline-5spiro-isoquinoline

> <compound>
MAT-POS-c2d406ed-3

> <compound_smiles>
c1ccc2c(c1)cncc2N3C(=O)C4(CN(Cc5c4cc(cc5)Cl)S(=O)(=O)CC6(CC6)C#N)NC3=S

> <enantiomer_smiles>
c1ccc2c(c1)cncc2N3C(=O)[C@@]4(C[N@](Cc5c4cc(cc5)Cl)S(=O)(=O)CC6(CC6)C#N)NC3=S

> <clash_score>
0

> <docking_score>
3.4028234663852886e+38

> <overlap_score>
1.0

> <MMFF_internal_energy>
128.0864781539026

> <docked_smiles>
c1ccc2c(c1)cncc2N3C(=O)[C@@]4(C[N@@](Cc5c4cc(cc5)Cl)S(=O)(=O)CC6(CC6)C#N)NC3=S

$$$$
EDJ-MED-7d88f880-1_1
  -OEChem-01042202313D

 60 64  0     1  0  0  0  0  0999 V2000
    4.8986    1.0232   21.2985 C   0  0  0  0  0  0  0  0  0  0  0  0
   12.0781    0.0316   24.1532 C   0  0  0  0  0  0  0  0  0  0  0  0
    3.8974    1.9290   21.5048 C   0  0  0  0  0  0  0  0  0  0  0  0
   12.9147   -0.6032   23.2559 C   0  0  0  0  0  0  0  0  0  0  0  0
    3.7877    2.4205   19.1658 C   0  0  0  0  0  0  0  0  0  0  0  0
   11.0005   -1.4332   22.0435 C   0  0  0  0  0  0  0  0  0  0  0  0
    5.3288    1.2339   17.6062 C   0  0  0  0  0  0  0  0  0  0  0  0
    6.8449   -0.2893   18.3747 C   0  0  0  0  0  0  0  0  0  0  0  0
    5.3995    0.7732   19.9944 C   0  0  0  0  0  0  0  0  0  0  0  0
    4.8238    1.4906   18.9051 C   0  0  0  0  0  0  0  0  0  0  0  0
   10.7056   -0.0626   23.9890 C   0  0  0  0  0  0  0  0  0  0  0  0
   10.1421   -0.7766   22.9242 C   0  0  0  0  0  0  0  0  0  0  0  0
    6.4452   -0.1472   19.6975 C   0  0  0  0  0  0  0  0  0  0  0  0
    3.3444    2.6278   20.4409 C   0  0  0  0  0  0  0  0  0  0  0  0
   12.3697   -1.3298   22.2224 C   0  0  0  0  0  0  0  0  0  0  0  0
    9.9496    0.5589   24.9527 C   0  0  0  0  0  0  0  0  0  0  0  0
    8.2504    0.0168   21.4265 C   0  0  0  0  0  0  0  0  0  0  0  0
    7.2793    2.1242   26.0286 C   0  0  0  0  0  0  0  0  0  0  0  0
    8.0155   -2.1541   22.4325 C   0  0  0  0  0  0  0  0  0  0  0  0
    6.9880   -1.9367   21.3575 C   0  0  0  0  0  0  0  0  0  0  0  0
    7.8737   -0.1194   23.8825 C   0  0  0  0  0  0  0  0  0  0  0  0
    8.6253   -0.7606   22.6923 C   0  0  3  0  0  0  0  0  0  0  0  0
    6.5142    3.5351   27.9359 C   0  0  0  0  0  0  0  0  0  0  0  0
    0.7332    2.8666   21.4958 C   0  0  0  0  0  0  0  0  0  0  0  0
    8.0937    2.2235   24.7641 C   0  0  0  0  0  0  0  0  0  0  0  0
    6.3072    0.3768   17.3417 N   0  0  0  0  0  0  0  0  0  0  0  0
    2.6040    4.7483   21.8405 N   0  0  0  0  0  0  0  0  0  0  0  0
    7.2305   -0.6898   20.7785 N   0  0  0  0  0  0  0  0  0  0  0  0
    8.6625    1.0133   24.4989 N   0  0  0  0  0  0  0  0  0  0  0  0
    7.2293    3.3401   26.6953 N   0  0  0  0  0  0  0  0  0  0  0  0
   10.3233    0.7301   26.1084 O   0  0  0  0  0  0  0  0  0  0  0  0
    8.8205    1.0412   21.0776 O   0  0  0  0  0  0  0  0  0  0  0  0
    6.7348    1.0887   26.4022 O   0  0  0  0  0  0  0  0  0  0  0  0
    1.5319    4.2200   19.4597 O   0  0  0  0  0  0  0  0  0  0  0  0
    2.0628    3.7877   20.7500 S   0  0  1  0  0  0  0  0  0  0  0  0
   13.4288   -2.1465   21.1124 Cl  0  0  0  0  0  0  0  0  0  0  0  0
    5.3127    0.4890   22.1568 H   0  0  0  0  0  0  0  0  0  0  0  0
   12.5188    0.5961   24.9710 H   0  0  0  0  0  0  0  0  0  0  0  0
    3.5274    2.1069   22.5215 H   0  0  0  0  0  0  0  0  0  0  0  0
   13.9920   -0.5226   23.3817 H   0  0  0  0  0  0  0  0  0  0  0  0
    3.3498    2.9707   18.3288 H   0  0  0  0  0  0  0  0  0  0  0  0
   10.6143   -2.0253   21.2266 H   0  0  0  0  0  0  0  0  0  0  0  0
    4.9155    1.7517   16.7470 H   0  0  0  0  0  0  0  0  0  0  0  0
    7.6461   -0.9756   18.1037 H   0  0  0  0  0  0  0  0  0  0  0  0
    7.5128   -2.5277   23.3386 H   0  0  0  0  0  0  0  0  0  0  0  0
    8.7593   -2.9102   22.1430 H   0  0  0  0  0  0  0  0  0  0  0  0
    7.0602   -2.7255   20.5716 H   0  0  0  0  0  0  0  0  0  0  0  0
    5.9526   -1.9964   21.7706 H   0  0  0  0  0  0  0  0  0  0  0  0
    6.9217    0.3182   23.5732 H   0  0  0  0  0  0  0  0  0  0  0  0
    7.6678   -0.8543   24.6617 H   0  0  0  0  0  0  0  0  0  0  0  0
    5.4800    3.8411   27.7194 H   0  0  0  0  0  0  0  0  0  0  0  0
    6.5063    2.5946   28.5063 H   0  0  0  0  0  0  0  0  0  0  0  0
    7.0120    4.3181   28.5268 H   0  0  0  0  0  0  0  0  0  0  0  0
   -0.0861    3.5553   21.7083 H   0  0  0  0  0  0  0  0  0  0  0  0
    0.4123    2.0955   20.7938 H   0  0  0  0  0  0  0  0  0  0  0  0
    1.1021    2.4150   22.4179 H   0  0  0  0  0  0  0  0  0  0  0  0
    7.4445    2.5015   23.9286 H   0  0  0  0  0  0  0  0  0  0  0  0
    8.8740    2.9808   24.8840 H   0  0  0  0  0  0  0  0  0  0  0  0
    1.9396    5.4803   22.1089 H   0  0  0  0  0  0  0  0  0  0  0  0
    7.7198    4.1326   26.2911 H   0  0  0  0  0  0  0  0  0  0  0  0
  1  3  2  0  0  0  0
  1  9  1  0  0  0  0
  2  4  2  0  0  0  0
  2 11  1  0  0  0  0
  3 14  1  0  0  0  0
  4 15  1  0  0  0  0
  5 10  1  0  0  0  0
  5 14  2  0  0  0  0
  6 12  1  0  0  0  0
  6 15  2  0  0  0  0
  7 10  2  0  0  0  0
  7 26  1  0  0  0  0
  8 13  1  0  0  0  0
  8 26  2  0  0  0  0
  9 10  1  0  0  0  0
  9 13  2  0  0  0  0
 11 12  2  0  0  0  0
 11 16  1  0  0  0  0
 12 22  1  0  0  0  0
 13 28  1  0  0  0  0
 14 35  1  0  0  0  0
 15 36  1  0  0  0  0
 16 29  1  0  0  0  0
 16 31  2  0  0  0  0
 17 22  1  0  0  0  0
 17 28  1  0  0  0  0
 17 32  2  0  0  0  0
 18 25  1  0  0  0  0
 18 30  1  0  0  0  0
 18 33  2  0  0  0  0
 19 20  1  0  0  0  0
 19 22  1  0  0  0  0
 20 28  1  0  0  0  0
 21 22  1  0  0  0  0
 21 29  1  0  0  0  0
 23 30  1  0  0  0  0
 24 35  1  6  0  0  0
 25 29  1  0  0  0  0
 27 35  2  0  0  0  0
 34 35  2  0  0  0  0
  1 37  1  0  0  0  0
  2 38  1  0  0  0  0
  3 39  1  0  0  0  0
  4 40  1  0  0  0  0
  5 41  1  0  0  0  0
  6 42  1  0  0  0  0
  7 43  1  0  0  0  0
  8 44  1  0  0  0  0
 19 45  1  0  0  0  0
 19 46  1  0  0  0  0
 20 47  1  0  0  0  0
 20 48  1  0  0  0  0
 21 49  1  0  0  0  0
 21 50  1  0  0  0  0
 23 51  1  0  0  0  0
 23 52  1  0  0  0  0
 23 53  1  0  0  0  0
 24 54  1  0  0  0  0
 24 55  1  0  0  0  0
 24 56  1  0  0  0  0
 25 57  1  0  0  0  0
 25 58  1  0  0  0  0
 27 59  1  0  0  0  0
 30 60  1  0  0  0  0
M  END
> <scaffold>
tetrahydroisoquinoline-5spiro-isoquinoline

> <compound>
EDJ-MED-7d88f880-1

> <compound_smiles>
CNC(=O)CN1CC2(CCN(C2=O)c3cncc4c3ccc(c4)S(=N)(=O)C)c5cc(ccc5C1=O)Cl

> <enantiomer_smiles>
CNC(=O)CN1C[C@]2(CCN(C2=O)c3cncc4c3ccc(c4)[S@@](=N)(=O)C)c5cc(ccc5C1=O)Cl

> <clash_score>
1.3048290369621705

> <docking_score>
3.4028234663852886e+38

> <overlap_score>
1.0

> <MMFF_internal_energy>
160.44678335568457

> <docked_smiles>
CNC(=O)CN1C[C@]2(CCN(C2=O)c3cncc4c3ccc(c4)[S@@](=N)(=O)C)c5cc(ccc5C1=O)Cl

$$$$
EDJ-MED-7d88f880-1_2
  -OEChem-01042202313D

 60 64  0     1  0  0  0  0  0999 V2000
    4.8986    1.0232   21.2985 C   0  0  0  0  0  0  0  0  0  0  0  0
   12.0781    0.0316   24.1532 C   0  0  0  0  0  0  0  0  0  0  0  0
    3.8974    1.9290   21.5048 C   0  0  0  0  0  0  0  0  0  0  0  0
   12.9147   -0.6032   23.2559 C   0  0  0  0  0  0  0  0  0  0  0  0
    3.7877    2.4205   19.1658 C   0  0  0  0  0  0  0  0  0  0  0  0
   11.0005   -1.4332   22.0435 C   0  0  0  0  0  0  0  0  0  0  0  0
    5.3288    1.2339   17.6062 C   0  0  0  0  0  0  0  0  0  0  0  0
    6.8449   -0.2893   18.3747 C   0  0  0  0  0  0  0  0  0  0  0  0
    5.3995    0.7732   19.9944 C   0  0  0  0  0  0  0  0  0  0  0  0
    4.8238    1.4906   18.9051 C   0  0  0  0  0  0  0  0  0  0  0  0
   10.7056   -0.0626   23.9890 C   0  0  0  0  0  0  0  0  0  0  0  0
   10.1421   -0.7766   22.9242 C   0  0  0  0  0  0  0  0  0  0  0  0
    6.4452   -0.1472   19.6975 C   0  0  0  0  0  0  0  0  0  0  0  0
    3.3444    2.6278   20.4409 C   0  0  0  0  0  0  0  0  0  0  0  0
   12.3697   -1.3298   22.2224 C   0  0  0  0  0  0  0  0  0  0  0  0
    9.9496    0.5589   24.9527 C   0  0  0  0  0  0  0  0  0  0  0  0
    8.2504    0.0168   21.4265 C   0  0  0  0  0  0  0  0  0  0  0  0
    7.2885    2.1228   26.0344 C   0  0  0  0  0  0  0  0  0  0  0  0
    8.0155   -2.1541   22.4325 C   0  0  0  0  0  0  0  0  0  0  0  0
    6.9880   -1.9367   21.3575 C   0  0  0  0  0  0  0  0  0  0  0  0
    7.8737   -0.1194   23.8825 C   0  0  0  0  0  0  0  0  0  0  0  0
    8.6253   -0.7606   22.6923 C   0  0  3  0  0  0  0  0  0  0  0  0
    6.5540    3.5265   27.9590 C   0  0  0  0  0  0  0  0  0  0  0  0
    2.7547    5.0058   21.8501 C   0  0  0  0  0  0  0  0  0  0  0  0
    8.0937    2.2235   24.7641 C   0  0  0  0  0  0  0  0  0  0  0  0
    6.3072    0.3768   17.3417 N   0  0  0  0  0  0  0  0  0  0  0  0
    0.9699    3.0347   21.5520 N   0  0  0  0  0  0  0  0  0  0  0  0
    7.2305   -0.6898   20.7785 N   0  0  0  0  0  0  0  0  0  0  0  0
    8.6625    1.0133   24.4989 N   0  0  0  0  0  0  0  0  0  0  0  0
    7.2569    3.3338   26.7110 N   0  0  0  0  0  0  0  0  0  0  0  0
   10.3233    0.7301   26.1084 O   0  0  0  0  0  0  0  0  0  0  0  0
    8.8205    1.0412   21.0776 O   0  0  0  0  0  0  0  0  0  0  0  0
    6.7360    1.0901   26.4042 O   0  0  0  0  0  0  0  0  0  0  0  0
    1.8231    4.5131   19.5050 O   0  0  0  0  0  0  0  0  0  0  0  0
    2.0628    3.7877   20.7500 S   0  0  2  0  0  0  0  0  0  0  0  0
   13.4288   -2.1465   21.1124 Cl  0  0  0  0  0  0  0  0  0  0  0  0
    5.3127    0.4890   22.1568 H   0  0  0  0  0  0  0  0  0  0  0  0
   12.5188    0.5961   24.9710 H   0  0  0  0  0  0  0  0  0  0  0  0
    3.5274    2.1069   22.5215 H   0  0  0  0  0  0  0  0  0  0  0  0
   13.9920   -0.5226   23.3817 H   0  0  0  0  0  0  0  0  0  0  0  0
    3.3498    2.9707   18.3288 H   0  0  0  0  0  0  0  0  0  0  0  0
   10.6143   -2.0253   21.2266 H   0  0  0  0  0  0  0  0  0  0  0  0
    4.9155    1.7517   16.7470 H   0  0  0  0  0  0  0  0  0  0  0  0
    7.6461   -0.9756   18.1037 H   0  0  0  0  0  0  0  0  0  0  0  0
    7.5128   -2.5277   23.3386 H   0  0  0  0  0  0  0  0  0  0  0  0
    8.7593   -2.9102   22.1430 H   0  0  0  0  0  0  0  0  0  0  0  0
    7.0602   -2.7255   20.5716 H   0  0  0  0  0  0  0  0  0  0  0  0
    5.9526   -1.9964   21.7706 H   0  0  0  0  0  0  0  0  0  0  0  0
    6.9217    0.3182   23.5732 H   0  0  0  0  0  0  0  0  0  0  0  0
    7.6678   -0.8543   24.6617 H   0  0  0  0  0  0  0  0  0  0  0  0
    5.5214    3.8452   27.7534 H   0  0  0  0  0  0  0  0  0  0  0  0
    6.5407    2.5816   28.5219 H   0  0  0  0  0  0  0  0  0  0  0  0
    7.0649    4.2994   28.5519 H   0  0  0  0  0  0  0  0  0  0  0  0
    1.9873    5.7511   22.0651 H   0  0  0  0  0  0  0  0  0  0  0  0
    3.0676    4.5036   22.7668 H   0  0  0  0  0  0  0  0  0  0  0  0
    3.6102    5.4691   21.3565 H   0  0  0  0  0  0  0  0  0  0  0  0
    7.4408    2.5150   23.9361 H   0  0  0  0  0  0  0  0  0  0  0  0
    8.8830    2.9714   24.8836 H   0  0  0  0  0  0  0  0  0  0  0  0
    0.1608    3.6164   21.7890 H   0  0  0  0  0  0  0  0  0  0  0  0
    7.7525    4.1243   26.3092 H   0  0  0  0  0  0  0  0  0  0  0  0
  1  3  2  0  0  0  0
  1  9  1  0  0  0  0
  2  4  2  0  0  0  0
  2 11  1  0  0  0  0
  3 14  1  0  0  0  0
  4 15  1  0  0  0  0
  5 10  1  0  0  0  0
  5 14  2  0  0  0  0
  6 12  1  0  0  0  0
  6 15  2  0  0  0  0
  7 10  2  0  0  0  0
  7 26  1  0  0  0  0
  8 13  1  0  0  0  0
  8 26  2  0  0  0  0
  9 10  1  0  0  0  0
  9 13  2  0  0  0  0
 11 12  2  0  0  0  0
 11 16  1  0  0  0  0
 12 22  1  0  0  0  0
 13 28  1  0  0  0  0
 14 35  1  0  0  0  0
 15 36  1  0  0  0  0
 16 29  1  0  0  0  0
 16 31  2  0  0  0  0
 17 22  1  0  0  0  0
 17 28  1  0  0  0  0
 17 32  2  0  0  0  0
 18 25  1  0  0  0  0
 18 30  1  0  0  0  0
 18 33  2  0  0  0  0
 19 20  1  0  0  0  0
 19 22  1  0  0  0  0
 20 28  1  0  0  0  0
 21 22  1  0  0  0  0
 21 29  1  0  0  0  0
 23 30  1  0  0  0  0
 24 35  1  1  0  0  0
 25 29  1  0  0  0  0
 27 35  2  0  0  0  0
 34 35  2  0  0  0  0
  1 37  1  0  0  0  0
  2 38  1  0  0  0  0
  3 39  1  0  0  0  0
  4 40  1  0  0  0  0
  5 41  1  0  0  0  0
  6 42  1  0  0  0  0
  7 43  1  0  0  0  0
  8 44  1  0  0  0  0
 19 45  1  0  0  0  0
 19 46  1  0  0  0  0
 20 47  1  0  0  0  0
 20 48  1  0  0  0  0
 21 49  1  0  0  0  0
 21 50  1  0  0  0  0
 23 51  1  0  0  0  0
 23 52  1  0  0  0  0
 23 53  1  0  0  0  0
 24 54  1  0  0  0  0
 24 55  1  0  0  0  0
 24 56  1  0  0  0  0
 25 57  1  0  0  0  0
 25 58  1  0  0  0  0
 27 59  1  0  0  0  0
 30 60  1  0  0  0  0
M  END
> <scaffold>
tetrahydroisoquinoline-5spiro-isoquinoline

> <compound>
EDJ-MED-7d88f880-1

> <compound_smiles>
CNC(=O)CN1CC2(CCN(C2=O)c3cncc4c3ccc(c4)S(=N)(=O)C)c5cc(ccc5C1=O)Cl

> <enantiomer_smiles>
CNC(=O)CN1C[C@]2(CCN(C2=O)c3cncc4c3ccc(c4)[S@](=N)(=O)C)c5cc(ccc5C1=O)Cl

> <clash_score>
0

> <docking_score>
3.4028234663852886e+38

> <overlap_score>
1.0

> <MMFF_internal_energy>
160.46473235983908

> <docked_smiles>
CNC(=O)CN1C[C@]2(CCN(C2=O)c3cncc4c3ccc(c4)[S@](=N)(=O)C)c5cc(ccc5C1=O)Cl

$$$$
ALP-POS-ecbed2ba-5_1
  -OEChem-01042202313D

 60 65  0     1  0  0  0  0  0999 V2000
    3.3444    2.6278   20.4409 C   0  0  0  0  0  0  0  0  0  0  0  0
    3.8974    1.9290   21.5048 C   0  0  0  0  0  0  0  0  0  0  0  0
    3.7877    2.4205   19.1658 C   0  0  0  0  0  0  0  0  0  0  0  0
    4.8986    1.0232   21.2985 C   0  0  0  0  0  0  0  0  0  0  0  0
   12.0781    0.0316   24.1532 C   0  0  0  0  0  0  0  0  0  0  0  0
   12.9147   -0.6032   23.2559 C   0  0  0  0  0  0  0  0  0  0  0  0
   11.0005   -1.4332   22.0435 C   0  0  0  0  0  0  0  0  0  0  0  0
    5.3288    1.2339   17.6062 C   0  0  0  0  0  0  0  0  0  0  0  0
    6.8449   -0.2893   18.3747 C   0  0  0  0  0  0  0  0  0  0  0  0
    4.8238    1.4906   18.9051 C   0  0  0  0  0  0  0  0  0  0  0  0
    5.3995    0.7732   19.9944 C   0  0  0  0  0  0  0  0  0  0  0  0
   10.7056   -0.0626   23.9890 C   0  0  0  0  0  0  0  0  0  0  0  0
   10.1421   -0.7766   22.9242 C   0  0  0  0  0  0  0  0  0  0  0  0
    6.4452   -0.1472   19.6975 C   0  0  0  0  0  0  0  0  0  0  0  0
   12.3697   -1.3298   22.2224 C   0  0  0  0  0  0  0  0  0  0  0  0
    8.2504    0.0168   21.4265 C   0  0  0  0  0  0  0  0  0  0  0  0
    9.9496    0.5589   24.9527 C   0  0  0  0  0  0  0  0  0  0  0  0
    8.0155   -2.1541   22.4325 C   0  0  0  0  0  0  0  0  0  0  0  0
    6.9880   -1.9367   21.3575 C   0  0  0  0  0  0  0  0  0  0  0  0
    7.8737   -0.1194   23.8825 C   0  0  0  0  0  0  0  0  0  0  0  0
    6.6216    0.7103   29.3481 C   0  0  0  0  0  0  0  0  0  0  0  0
    7.6119    2.6512   28.9017 C   0  0  0  0  0  0  0  0  0  0  0  0
    6.8356    1.5848   28.0838 C   0  0  0  0  0  0  0  0  0  0  0  0
    8.6253   -0.7606   22.6923 C   0  0  3  0  0  0  0  0  0  0  0  0
    7.6088    0.9304   26.9546 C   0  0  0  0  0  0  0  0  0  0  0  0
    6.3072    0.3768   17.3417 N   0  0  0  0  0  0  0  0  0  0  0  0
    7.2305   -0.6898   20.7785 N   0  0  0  0  0  0  0  0  0  0  0  0
    8.6625    1.0133   24.4989 N   0  0  3  0  0  0  0  0  0  0  0  0
    8.8314    1.0394   21.0790 O   0  0  0  0  0  0  0  0  0  0  0  0
    5.4580    2.8364   30.4706 O   0  0  0  0  0  0  0  0  0  0  0  0
    7.6260    1.9622   31.4799 O   0  0  0  0  0  0  0  0  0  0  0  0
    6.4559    2.2241   24.9990 O   0  0  0  0  0  0  0  0  0  0  0  0
    8.6119    3.1278   25.9583 O   0  0  0  0  0  0  0  0  0  0  0  0
    6.7329    2.1603   30.3587 S   0  0  0  0  0  0  0  0  0  0  0  0
    7.7725    2.0180   25.5623 S   0  0  0  0  0  0  0  0  0  0  0  0
   13.4285   -2.1410   21.1076 Cl  0  0  0  0  0  0  0  0  0  0  0  0
    2.5443    3.3508   20.6368 H   0  0  0  0  0  0  0  0  0  0  0  0
    3.5189    2.1137   22.5166 H   0  0  0  0  0  0  0  0  0  0  0  0
    3.3421    2.9744   18.3363 H   0  0  0  0  0  0  0  0  0  0  0  0
    5.3131    0.4893   22.1569 H   0  0  0  0  0  0  0  0  0  0  0  0
   12.5038    0.5986   24.9731 H   0  0  0  0  0  0  0  0  0  0  0  0
   13.9925   -0.5165   23.3773 H   0  0  0  0  0  0  0  0  0  0  0  0
   10.6052   -2.0169   21.2237 H   0  0  0  0  0  0  0  0  0  0  0  0
    4.9151    1.7511   16.7471 H   0  0  0  0  0  0  0  0  0  0  0  0
    7.6455   -0.9765   18.1038 H   0  0  0  0  0  0  0  0  0  0  0  0
    9.7866   -0.1187   25.8304 H   0  0  0  0  0  0  0  0  0  0  0  0
   10.4816    1.4567   25.3600 H   0  0  0  0  0  0  0  0  0  0  0  0
    7.5167   -2.5459   23.3332 H   0  0  0  0  0  0  0  0  0  0  0  0
    8.7666   -2.9029   22.1426 H   0  0  0  0  0  0  0  0  0  0  0  0
    7.0601   -2.7250   20.5715 H   0  0  0  0  0  0  0  0  0  0  0  0
    5.9530   -1.9963   21.7709 H   0  0  0  0  0  0  0  0  0  0  0  0
    6.8882    0.2643   23.5640 H   0  0  0  0  0  0  0  0  0  0  0  0
    7.6667   -0.8657   24.6729 H   0  0  0  0  0  0  0  0  0  0  0  0
    5.6545    0.2046   29.4062 H   0  0  0  0  0  0  0  0  0  0  0  0
    7.4218   -0.0045   29.5662 H   0  0  0  0  0  0  0  0  0  0  0  0
    8.6892    2.4798   28.9950 H   0  0  0  0  0  0  0  0  0  0  0  0
    7.4314    3.6876   28.6052 H   0  0  0  0  0  0  0  0  0  0  0  0
    5.8849    1.9812   27.6982 H   0  0  0  0  0  0  0  0  0  0  0  0
    7.0989    0.0296   26.6018 H   0  0  0  0  0  0  0  0  0  0  0  0
    8.6192    0.6630   27.2756 H   0  0  0  0  0  0  0  0  0  0  0  0
  1  2  2  0  0  0  0
  1  3  1  0  0  0  0
  2  4  1  0  0  0  0
  3 10  2  0  0  0  0
  4 11  2  0  0  0  0
  5  6  2  0  0  0  0
  5 12  1  0  0  0  0
  6 15  1  0  0  0  0
  7 13  1  0  0  0  0
  7 15  2  0  0  0  0
  8 10  1  0  0  0  0
  8 26  2  0  0  0  0
  9 14  2  0  0  0  0
  9 26  1  0  0  0  0
 10 11  1  0  0  0  0
 11 14  1  0  0  0  0
 12 13  2  0  0  0  0
 12 17  1  0  0  0  0
 13 24  1  0  0  0  0
 14 27  1  0  0  0  0
 15 36  1  0  0  0  0
 16 24  1  0  0  0  0
 16 27  1  0  0  0  0
 16 29  2  0  0  0  0
 17 28  1  0  0  0  0
 18 19  1  0  0  0  0
 18 24  1  0  0  0  0
 19 27  1  0  0  0  0
 20 24  1  0  0  0  0
 20 28  1  0  0  0  0
 21 23  1  0  0  0  0
 21 34  1  0  0  0  0
 22 23  1  0  0  0  0
 22 34  1  0  0  0  0
 23 25  1  0  0  0  0
 25 35  1  0  0  0  0
 28 35  1  0  0  0  0
 30 34  2  0  0  0  0
 31 34  2  0  0  0  0
 32 35  2  0  0  0  0
 33 35  2  0  0  0  0
  1 37  1  0  0  0  0
  2 38  1  0  0  0  0
  3 39  1  0  0  0  0
  4 40  1  0  0  0  0
  5 41  1  0  0  0  0
  6 42  1  0  0  0  0
  7 43  1  0  0  0  0
  8 44  1  0  0  0  0
  9 45  1  0  0  0  0
 17 46  1  0  0  0  0
 17 47  1  0  0  0  0
 18 48  1  0  0  0  0
 18 49  1  0  0  0  0
 19 50  1  0  0  0  0
 19 51  1  0  0  0  0
 20 52  1  0  0  0  0
 20 53  1  0  0  0  0
 21 54  1  0  0  0  0
 21 55  1  0  0  0  0
 22 56  1  0  0  0  0
 22 57  1  0  0  0  0
 23 58  1  0  0  0  0
 25 59  1  0  0  0  0
 25 60  1  0  0  0  0
M  END
> <scaffold>
tetrahydroisoquinoline-5spiro-isoquinoline

> <compound>
ALP-POS-ecbed2ba-5

> <compound_smiles>
c1ccc2c(c1)cncc2N3CCC4(C3=O)CN(Cc5c4cc(cc5)Cl)S(=O)(=O)CC6CS(=O)(=O)C6

> <enantiomer_smiles>
c1ccc2c(c1)cncc2N3CC[C@]4(C3=O)C[N@](Cc5c4cc(cc5)Cl)S(=O)(=O)CC6CS(=O)(=O)C6

> <clash_score>
0

> <docking_score>
3.4028234663852886e+38

> <overlap_score>
0.9691377282142639

> <MMFF_internal_energy>
88.18268684534776

> <docked_smiles>
c1ccc2c(c1)cncc2N3CC[C@]4(C3=O)C[N@](Cc5c4cc(cc5)Cl)S(=O)(=O)CC6CS(=O)(=O)C6

$$$$
MAT-POS-50a80394-1_2
  -OEChem-01042202313D

 61 66  0     1  0  0  0  0  0999 V2000
    8.6686    5.6500   23.5209 C   0  0  0  0  0  0  0  0  0  0  0  0
    3.3444    2.6278   20.4409 C   0  0  0  0  0  0  0  0  0  0  0  0
    3.8974    1.9290   21.5048 C   0  0  0  0  0  0  0  0  0  0  0  0
    3.7877    2.4205   19.1658 C   0  0  0  0  0  0  0  0  0  0  0  0
    4.8986    1.0232   21.2985 C   0  0  0  0  0  0  0  0  0  0  0  0
   12.0781    0.0316   24.1532 C   0  0  0  0  0  0  0  0  0  0  0  0
   12.9147   -0.6032   23.2559 C   0  0  0  0  0  0  0  0  0  0  0  0
   11.0005   -1.4332   22.0435 C   0  0  0  0  0  0  0  0  0  0  0  0
    5.3288    1.2339   17.6062 C   0  0  0  0  0  0  0  0  0  0  0  0
    6.8449   -0.2893   18.3747 C   0  0  0  0  0  0  0  0  0  0  0  0
    4.8238    1.4906   18.9051 C   0  0  0  0  0  0  0  0  0  0  0  0
    5.3995    0.7732   19.9944 C   0  0  0  0  0  0  0  0  0  0  0  0
   10.7056   -0.0626   23.9890 C   0  0  0  0  0  0  0  0  0  0  0  0
   10.1421   -0.7766   22.9242 C   0  0  0  0  0  0  0  0  0  0  0  0
    6.4452   -0.1472   19.6975 C   0  0  0  0  0  0  0  0  0  0  0  0
   12.3697   -1.3298   22.2224 C   0  0  0  0  0  0  0  0  0  0  0  0
    8.2504    0.0168   21.4265 C   0  0  0  0  0  0  0  0  0  0  0  0
    9.9496    0.5589   24.9527 C   0  0  0  0  0  0  0  0  0  0  0  0
    7.0397    5.7904   25.4399 C   0  0  0  0  0  0  0  0  0  0  0  0
    6.3443    5.0823   24.3149 C   0  0  0  0  0  0  0  0  0  0  0  0
    6.9880   -1.9367   21.3575 C   0  0  0  0  0  0  0  0  0  0  0  0
    7.8737   -0.1194   23.8825 C   0  0  0  0  0  0  0  0  0  0  0  0
    8.0155   -2.1541   22.4325 C   0  0  1  0  0  0  0  0  0  0  0  0
    7.8428    4.9513   24.4715 C   0  0  0  0  0  0  0  0  0  0  0  0
    8.6253   -0.7606   22.6923 C   0  0  3  0  0  0  0  0  0  0  0  0
    7.4314   -2.8908   23.6445 C   0  0  0  0  0  0  0  0  0  0  0  0
    8.3948    3.6313   24.9613 C   0  0  0  0  0  0  0  0  0  0  0  0
    9.3340    6.2130   22.7550 N   0  0  0  0  0  0  0  0  0  0  0  0
    6.3072    0.3768   17.3417 N   0  0  0  0  0  0  0  0  0  0  0  0
    7.2305   -0.6898   20.7785 N   0  0  0  0  0  0  0  0  0  0  0  0
    8.6625    1.0133   24.4989 N   0  0  3  0  0  0  0  0  0  0  0  0
    8.7557    1.0946   21.1304 O   0  0  0  0  0  0  0  0  0  0  0  0
    7.4199    2.5010   22.8167 O   0  0  0  0  0  0  0  0  0  0  0  0
    9.9266    2.7156   23.0527 O   0  0  0  0  0  0  0  0  0  0  0  0
    8.6188    2.4841   23.6263 S   0  0  0  0  0  0  0  0  0  0  0  0
   13.4286   -2.1414   21.1079 Cl  0  0  0  0  0  0  0  0  0  0  0  0
    2.5443    3.3508   20.6368 H   0  0  0  0  0  0  0  0  0  0  0  0
    3.5189    2.1137   22.5166 H   0  0  0  0  0  0  0  0  0  0  0  0
    3.3421    2.9744   18.3363 H   0  0  0  0  0  0  0  0  0  0  0  0
    5.3131    0.4893   22.1569 H   0  0  0  0  0  0  0  0  0  0  0  0
   12.5042    0.5943   24.9755 H   0  0  0  0  0  0  0  0  0  0  0  0
   13.9926   -0.5203   23.3798 H   0  0  0  0  0  0  0  0  0  0  0  0
   10.6061   -2.0197   21.2259 H   0  0  0  0  0  0  0  0  0  0  0  0
    4.9151    1.7511   16.7471 H   0  0  0  0  0  0  0  0  0  0  0  0
    7.6455   -0.9765   18.1038 H   0  0  0  0  0  0  0  0  0  0  0  0
    9.7598   -0.1289   25.8167 H   0  0  0  0  0  0  0  0  0  0  0  0
   10.4951    1.4385   25.3838 H   0  0  0  0  0  0  0  0  0  0  0  0
    7.1122    6.8708   25.3846 H   0  0  0  0  0  0  0  0  0  0  0  0
    6.8822    5.4146   26.4443 H   0  0  0  0  0  0  0  0  0  0  0  0
    5.7201    4.2325   24.5661 H   0  0  0  0  0  0  0  0  0  0  0  0
    5.9507    5.6892   23.5075 H   0  0  0  0  0  0  0  0  0  0  0  0
    7.0317   -2.7465   20.5874 H   0  0  0  0  0  0  0  0  0  0  0  0
    5.9459   -1.9500   21.7624 H   0  0  0  0  0  0  0  0  0  0  0  0
    6.8983    0.2870   23.5660 H   0  0  0  0  0  0  0  0  0  0  0  0
    7.6554   -0.8679   24.6591 H   0  0  0  0  0  0  0  0  0  0  0  0
    8.7908   -2.8268   22.0172 H   0  0  0  0  0  0  0  0  0  0  0  0
    6.6582   -2.2773   24.1076 H   0  0  0  0  0  0  0  0  0  0  0  0
    8.2111   -3.0907   24.3800 H   0  0  0  0  0  0  0  0  0  0  0  0
    6.9905   -3.8374   23.3309 H   0  0  0  0  0  0  0  0  0  0  0  0
    7.7132    3.1636   25.6772 H   0  0  0  0  0  0  0  0  0  0  0  0
    9.3699    3.7670   25.4369 H   0  0  0  0  0  0  0  0  0  0  0  0
  1 24  1  0  0  0  0
  1 28  3  0  0  0  0
  2  3  2  0  0  0  0
  2  4  1  0  0  0  0
  3  5  1  0  0  0  0
  4 11  2  0  0  0  0
  5 12  2  0  0  0  0
  6  7  2  0  0  0  0
  6 13  1  0  0  0  0
  7 16  1  0  0  0  0
  8 14  1  0  0  0  0
  8 16  2  0  0  0  0
  9 11  1  0  0  0  0
  9 29  2  0  0  0  0
 10 15  2  0  0  0  0
 10 29  1  0  0  0  0
 11 12  1  0  0  0  0
 12 15  1  0  0  0  0
 13 14  2  0  0  0  0
 13 18  1  0  0  0  0
 14 25  1  0  0  0  0
 15 30  1  0  0  0  0
 16 36  1  0  0  0  0
 17 25  1  0  0  0  0
 17 30  1  0  0  0  0
 17 32  2  0  0  0  0
 18 31  1  0  0  0  0
 19 20  1  0  0  0  0
 19 24  1  0  0  0  0
 20 24  1  0  0  0  0
 21 23  1  0  0  0  0
 21 30  1  0  0  0  0
 22 25  1  0  0  0  0
 22 31  1  0  0  0  0
 23 25  1  0  0  0  0
 23 26  1  6  0  0  0
 24 27  1  0  0  0  0
 27 35  1  0  0  0  0
 31 35  1  0  0  0  0
 33 35  2  0  0  0  0
 34 35  2  0  0  0  0
  2 37  1  0  0  0  0
  3 38  1  0  0  0  0
  4 39  1  0  0  0  0
  5 40  1  0  0  0  0
  6 41  1  0  0  0  0
  7 42  1  0  0  0  0
  8 43  1  0  0  0  0
  9 44  1  0  0  0  0
 10 45  1  0  0  0  0
 18 46  1  0  0  0  0
 18 47  1  0  0  0  0
 19 48  1  0  0  0  0
 19 49  1  0  0  0  0
 20 50  1  0  0  0  0
 20 51  1  0  0  0  0
 21 52  1  0  0  0  0
 21 53  1  0  0  0  0
 22 54  1  0  0  0  0
 22 55  1  0  0  0  0
 23 56  1  0  0  0  0
 26 57  1  0  0  0  0
 26 58  1  0  0  0  0
 26 59  1  0  0  0  0
 27 60  1  0  0  0  0
 27 61  1  0  0  0  0
M  END
> <scaffold>
tetrahydroisoquinoline-5spiro-isoquinoline

> <compound>
MAT-POS-50a80394-1

> <compound_smiles>
CC1CN(C(=O)C12CN(Cc3c2cc(cc3)Cl)S(=O)(=O)CC4(CC4)C#N)c5cncc6c5cccc6

> <enantiomer_smiles>
C[C@H]1CN(C(=O)[C@@]12C[N@@](Cc3c2cc(cc3)Cl)S(=O)(=O)CC4(CC4)C#N)c5cncc6c5cccc6

> <clash_score>
0

> <docking_score>
3.4028234663852886e+38

> <overlap_score>
0.9814168214797974

> <MMFF_internal_energy>
134.56480519589846

> <docked_smiles>
C[C@H]1CN(C(=O)[C@@]12C[N@@](Cc3c2cc(cc3)Cl)S(=O)(=O)CC4(CC4)C#N)c5cncc6c5cccc6

$$$$
EDJ-MED-7e491f08-2_1
  -OEChem-01042202313D

 57 62  0     1  0  0  0  0  0999 V2000
    3.3444    2.6278   20.4409 C   0  0  0  0  0  0  0  0  0  0  0  0
    3.8974    1.9290   21.5048 C   0  0  0  0  0  0  0  0  0  0  0  0
    3.7877    2.4205   19.1658 C   0  0  0  0  0  0  0  0  0  0  0  0
    4.8986    1.0232   21.2985 C   0  0  0  0  0  0  0  0  0  0  0  0
   12.0781    0.0316   24.1532 C   0  0  0  0  0  0  0  0  0  0  0  0
   12.9147   -0.6032   23.2559 C   0  0  0  0  0  0  0  0  0  0  0  0
   11.0005   -1.4332   22.0435 C   0  0  0  0  0  0  0  0  0  0  0  0
    5.3288    1.2339   17.6062 C   0  0  0  0  0  0  0  0  0  0  0  0
    6.8449   -0.2893   18.3747 C   0  0  0  0  0  0  0  0  0  0  0  0
    4.8238    1.4906   18.9051 C   0  0  0  0  0  0  0  0  0  0  0  0
    5.3995    0.7732   19.9944 C   0  0  0  0  0  0  0  0  0  0  0  0
   10.7056   -0.0626   23.9890 C   0  0  0  0  0  0  0  0  0  0  0  0
   10.1421   -0.7766   22.9242 C   0  0  0  0  0  0  0  0  0  0  0  0
    6.4452   -0.1472   19.6975 C   0  0  0  0  0  0  0  0  0  0  0  0
   12.3697   -1.3298   22.2224 C   0  0  0  0  0  0  0  0  0  0  0  0
    9.9496    0.5589   24.9527 C   0  0  0  0  0  0  0  0  0  0  0  0
    8.2504    0.0168   21.4265 C   0  0  0  0  0  0  0  0  0  0  0  0
    7.3094    2.2577   25.9972 C   0  0  0  0  0  0  0  0  0  0  0  0
    7.6636    3.0880   23.6127 C   0  0  0  0  0  0  0  0  0  0  0  0
    8.8789    3.4770   24.4022 C   0  0  0  0  0  0  0  0  0  0  0  0
    7.8737   -0.1194   23.8825 C   0  0  0  0  0  0  0  0  0  0  0  0
    6.9880   -1.9367   21.3575 C   0  0  0  0  0  0  0  0  0  0  0  0
    8.6253   -0.7606   22.6923 C   0  0  2  0  0  0  0  0  0  0  0  0
    8.1185    2.2256   24.7637 C   0  0  0  0  0  0  0  0  0  0  0  0
    8.0155   -2.1541   22.4325 C   0  0  0  0  0  0  0  0  0  0  0  0
    7.4394    2.0198   28.4688 C   0  0  0  0  0  0  0  0  0  0  0  0
    6.3072    0.3768   17.3417 N   0  0  0  0  0  0  0  0  0  0  0  0
    7.2305   -0.6898   20.7785 N   0  0  0  0  0  0  0  0  0  0  0  0
    8.6625    1.0133   24.4989 N   0  0  0  0  0  0  0  0  0  0  0  0
    8.0341    2.0304   27.1516 N   0  0  0  0  0  0  0  0  0  0  0  0
   10.3163    0.7354   26.1101 O   0  0  0  0  0  0  0  0  0  0  0  0
    8.8260    1.0390   21.0751 O   0  0  0  0  0  0  0  0  0  0  0  0
    6.1055    2.4745   25.9245 O   0  0  0  0  0  0  0  0  0  0  0  0
    8.9298   -3.0750   22.0944 F   0  0  0  0  0  0  0  0  0  0  0  0
    7.3794   -2.6105   23.5392 F   0  0  0  0  0  0  0  0  0  0  0  0
   13.4285   -2.1475   21.1124 Cl  0  0  0  0  0  0  0  0  0  0  0  0
    2.5443    3.3508   20.6368 H   0  0  0  0  0  0  0  0  0  0  0  0
    3.5189    2.1137   22.5166 H   0  0  0  0  0  0  0  0  0  0  0  0
    3.3421    2.9744   18.3363 H   0  0  0  0  0  0  0  0  0  0  0  0
    5.3131    0.4893   22.1569 H   0  0  0  0  0  0  0  0  0  0  0  0
   12.5196    0.5933   24.9723 H   0  0  0  0  0  0  0  0  0  0  0  0
   13.9920   -0.5271   23.3843 H   0  0  0  0  0  0  0  0  0  0  0  0
   10.6074   -2.0273   21.2306 H   0  0  0  0  0  0  0  0  0  0  0  0
    4.9151    1.7511   16.7471 H   0  0  0  0  0  0  0  0  0  0  0  0
    7.6455   -0.9765   18.1038 H   0  0  0  0  0  0  0  0  0  0  0  0
    6.7713    3.6909   23.7345 H   0  0  0  0  0  0  0  0  0  0  0  0
    7.8165    2.7257   22.6028 H   0  0  0  0  0  0  0  0  0  0  0  0
    9.8445    3.3740   23.9211 H   0  0  0  0  0  0  0  0  0  0  0  0
    8.8002    4.3402   25.0526 H   0  0  0  0  0  0  0  0  0  0  0  0
    6.9341    0.3323   23.5570 H   0  0  0  0  0  0  0  0  0  0  0  0
    7.6437   -0.8438   24.6614 H   0  0  0  0  0  0  0  0  0  0  0  0
    7.0377   -2.7454   20.5866 H   0  0  0  0  0  0  0  0  0  0  0  0
    5.9514   -1.9615   21.7760 H   0  0  0  0  0  0  0  0  0  0  0  0
    7.4662    3.0347   28.8921 H   0  0  0  0  0  0  0  0  0  0  0  0
    6.3956    1.6801   28.3970 H   0  0  0  0  0  0  0  0  0  0  0  0
    8.0035    1.3360   29.1201 H   0  0  0  0  0  0  0  0  0  0  0  0
    9.0325    1.8629   27.0705 H   0  0  0  0  0  0  0  0  0  0  0  0
  1  2  2  0  0  0  0
  1  3  1  0  0  0  0
  2  4  1  0  0  0  0
  3 10  2  0  0  0  0
  4 11  2  0  0  0  0
  5  6  2  0  0  0  0
  5 12  1  0  0  0  0
  6 15  1  0  0  0  0
  7 13  1  0  0  0  0
  7 15  2  0  0  0  0
  8 10  1  0  0  0  0
  8 27  2  0  0  0  0
  9 14  2  0  0  0  0
  9 27  1  0  0  0  0
 10 11  1  0  0  0  0
 11 14  1  0  0  0  0
 12 13  2  0  0  0  0
 12 16  1  0  0  0  0
 13 23  1  6  0  0  0
 14 28  1  0  0  0  0
 15 36  1  0  0  0  0
 16 29  1  0  0  0  0
 16 31  2  0  0  0  0
 17 23  1  1  0  0  0
 17 28  1  0  0  0  0
 17 32  2  0  0  0  0
 18 24  1  0  0  0  0
 18 30  1  0  0  0  0
 18 33  2  0  0  0  0
 19 20  1  0  0  0  0
 19 24  1  0  0  0  0
 20 24  1  0  0  0  0
 21 23  1  6  0  0  0
 21 29  1  0  0  0  0
 22 25  1  0  0  0  0
 22 28  1  0  0  0  0
 23 25  1  1  0  0  0
 24 29  1  0  0  0  0
 25 34  1  0  0  0  0
 25 35  1  0  0  0  0
 26 30  1  0  0  0  0
  1 37  1  0  0  0  0
  2 38  1  0  0  0  0
  3 39  1  0  0  0  0
  4 40  1  0  0  0  0
  5 41  1  0  0  0  0
  6 42  1  0  0  0  0
  7 43  1  0  0  0  0
  8 44  1  0  0  0  0
  9 45  1  0  0  0  0
 19 46  1  0  0  0  0
 19 47  1  0  0  0  0
 20 48  1  0  0  0  0
 20 49  1  0  0  0  0
 21 50  1  0  0  0  0
 21 51  1  0  0  0  0
 22 52  1  0  0  0  0
 22 53  1  0  0  0  0
 26 54  1  0  0  0  0
 26 55  1  0  0  0  0
 26 56  1  0  0  0  0
 30 57  1  0  0  0  0
M  END
> <scaffold>
tetrahydroisoquinoline-5spiro-isoquinoline

> <compound>
EDJ-MED-7e491f08-2

> <compound_smiles>
CNC(=O)C1(CC1)N2C[C@]3(c4cc(ccc4C2=O)Cl)C(=O)N(CC3(F)F)c5cncc6c5cccc6

> <enantiomer_smiles>
CNC(=O)C1(CC1)N2C[C@]3(c4cc(ccc4C2=O)Cl)C(=O)N(CC3(F)F)c5cncc6c5cccc6

> <clash_score>
0

> <docking_score>
3.4028234663852886e+38

> <overlap_score>
1.0099979639053345

> <MMFF_internal_energy>
150.36140743516333

> <docked_smiles>
CNC(=O)C1(CC1)N2C[C@]3(c4cc(ccc4C2=O)Cl)C(=O)N(CC3(F)F)c5cncc6c5cccc6

$$$$
MAT-POS-b4d6b7fc-7_1
  -OEChem-01042202313D

 63 67  0     1  0  0  0  0  0999 V2000
    4.8986    1.0232   21.2985 C   0  0  0  0  0  0  0  0  0  0  0  0
   12.0781    0.0316   24.1532 C   0  0  0  0  0  0  0  0  0  0  0  0
    3.8974    1.9290   21.5048 C   0  0  0  0  0  0  0  0  0  0  0  0
   12.9147   -0.6032   23.2559 C   0  0  0  0  0  0  0  0  0  0  0  0
    3.7877    2.4205   19.1658 C   0  0  0  0  0  0  0  0  0  0  0  0
   11.0005   -1.4332   22.0435 C   0  0  0  0  0  0  0  0  0  0  0  0
    5.3288    1.2339   17.6062 C   0  0  0  0  0  0  0  0  0  0  0  0
    6.8449   -0.2893   18.3747 C   0  0  0  0  0  0  0  0  0  0  0  0
    5.3995    0.7732   19.9944 C   0  0  0  0  0  0  0  0  0  0  0  0
    4.8238    1.4906   18.9051 C   0  0  0  0  0  0  0  0  0  0  0  0
   10.7056   -0.0626   23.9890 C   0  0  0  0  0  0  0  0  0  0  0  0
   10.1421   -0.7766   22.9242 C   0  0  0  0  0  0  0  0  0  0  0  0
    6.4452   -0.1472   19.6975 C   0  0  0  0  0  0  0  0  0  0  0  0
    3.3444    2.6278   20.4409 C   0  0  0  0  0  0  0  0  0  0  0  0
   12.3697   -1.3298   22.2224 C   0  0  0  0  0  0  0  0  0  0  0  0
    8.2504    0.0168   21.4265 C   0  0  0  0  0  0  0  0  0  0  0  0
    6.7850    2.6041   25.0047 C   0  0  0  0  0  0  0  0  0  0  0  0
    9.9496    0.5589   24.9527 C   0  0  0  0  0  0  0  0  0  0  0  0
    8.0155   -2.1541   22.4325 C   0  0  0  0  0  0  0  0  0  0  0  0
    6.9880   -1.9367   21.3575 C   0  0  0  0  0  0  0  0  0  0  0  0
    7.8737   -0.1194   23.8825 C   0  0  0  0  0  0  0  0  0  0  0  0
    8.6253   -0.7606   22.6923 C   0  0  3  0  0  0  0  0  0  0  0  0
    4.5270    3.4782   25.5291 C   0  0  0  0  0  0  0  0  0  0  0  0
    0.2144    2.0733   21.4860 C   0  0  0  0  0  0  0  0  0  0  0  0
    7.8612    1.7144   25.5743 C   0  0  0  0  0  0  0  0  0  0  0  0
    6.3072    0.3768   17.3417 N   0  0  0  0  0  0  0  0  0  0  0  0
    7.2305   -0.6898   20.7785 N   0  0  0  0  0  0  0  0  0  0  0  0
    2.2947    3.5766   20.6954 N   0  0  0  0  0  0  0  0  0  0  0  0
    5.6894    2.6850   25.8510 N   0  0  0  0  0  0  0  0  0  0  0  0
    8.6625    1.0133   24.4989 N   0  3  3  0  0  0  0  0  0  0  0  0
    8.8307    1.0396   21.0789 O   0  0  0  0  0  0  0  0  0  0  0  0
    6.8869    3.1779   23.9236 O   0  0  0  0  0  0  0  0  0  0  0  0
   -0.1294    4.3687   20.3112 O   0  0  0  0  0  0  0  0  0  0  0  0
    0.7218    2.4319   18.9440 O   0  0  0  0  0  0  0  0  0  0  0  0
    0.6981    3.1836   20.1831 S   0  0  0  0  0  0  0  0  0  0  0  0
   13.4286   -2.1403   21.1072 Cl  0  0  0  0  0  0  0  0  0  0  0  0
    5.3129    0.4891   22.1565 H   0  0  0  0  0  0  0  0  0  0  0  0
   12.5040    0.5973   24.9741 H   0  0  0  0  0  0  0  0  0  0  0  0
    3.5264    2.1066   22.5215 H   0  0  0  0  0  0  0  0  0  0  0  0
   13.9926   -0.5176   23.3780 H   0  0  0  0  0  0  0  0  0  0  0  0
    3.3490    2.9700   18.3283 H   0  0  0  0  0  0  0  0  0  0  0  0
   10.6057   -2.0168   21.2239 H   0  0  0  0  0  0  0  0  0  0  0  0
    4.9144    1.7516   16.7476 H   0  0  0  0  0  0  0  0  0  0  0  0
    7.6459   -0.9758   18.1038 H   0  0  0  0  0  0  0  0  0  0  0  0
    9.7630   -0.1207   25.8244 H   0  0  0  0  0  0  0  0  0  0  0  0
   10.4585    1.4662   25.3691 H   0  0  0  0  0  0  0  0  0  0  0  0
    7.5159   -2.5477   23.3319 H   0  0  0  0  0  0  0  0  0  0  0  0
    8.7613   -2.9061   22.1409 H   0  0  0  0  0  0  0  0  0  0  0  0
    7.0594   -2.7244   20.5709 H   0  0  0  0  0  0  0  0  0  0  0  0
    5.9531   -1.9957   21.7710 H   0  0  0  0  0  0  0  0  0  0  0  0
    6.8972    0.2930   23.5750 H   0  0  0  0  0  0  0  0  0  0  0  0
    7.6778   -0.8486   24.6901 H   0  0  0  0  0  0  0  0  0  0  0  0
    4.6459    4.4896   25.9451 H   0  0  0  0  0  0  0  0  0  0  0  0
    4.4179    3.5418   24.4364 H   0  0  0  0  0  0  0  0  0  0  0  0
    3.6312    3.0075   25.9603 H   0  0  0  0  0  0  0  0  0  0  0  0
   -0.8039    1.7343   21.2892 H   0  0  0  0  0  0  0  0  0  0  0  0
    0.9043    1.2281   21.4920 H   0  0  0  0  0  0  0  0  0  0  0  0
    0.2616    2.6126   22.4332 H   0  0  0  0  0  0  0  0  0  0  0  0
    7.4204    0.9331   26.1997 H   0  0  0  0  0  0  0  0  0  0  0  0
    8.5777    2.3054   26.1514 H   0  0  0  0  0  0  0  0  0  0  0  0
    2.3497    4.0243   21.6253 H   0  0  0  0  0  0  0  0  0  0  0  0
    5.6843    2.1547   26.7176 H   0  0  0  0  0  0  0  0  0  0  0  0
    8.7953    1.7233   23.7550 H   0  0  0  0  0  0  0  0  0  0  0  0
  1  3  2  0  0  0  0
  1  9  1  0  0  0  0
  2  4  2  0  0  0  0
  2 11  1  0  0  0  0
  3 14  1  0  0  0  0
  4 15  1  0  0  0  0
  5 10  1  0  0  0  0
  5 14  2  0  0  0  0
  6 12  1  0  0  0  0
  6 15  2  0  0  0  0
  7 10  2  0  0  0  0
  7 26  1  0  0  0  0
  8 13  1  0  0  0  0
  8 26  2  0  0  0  0
  9 10  1  0  0  0  0
  9 13  2  0  0  0  0
 11 12  2  0  0  0  0
 11 18  1  0  0  0  0
 12 22  1  0  0  0  0
 13 27  1  0  0  0  0
 14 28  1  0  0  0  0
 15 36  1  0  0  0  0
 16 22  1  0  0  0  0
 16 27  1  0  0  0  0
 16 31  2  0  0  0  0
 17 25  1  0  0  0  0
 17 29  1  0  0  0  0
 17 32  2  0  0  0  0
 18 30  1  0  0  0  0
 19 20  1  0  0  0  0
 19 22  1  0  0  0  0
 20 27  1  0  0  0  0
 21 22  1  0  0  0  0
 21 30  1  0  0  0  0
 23 29  1  0  0  0  0
 24 35  1  0  0  0  0
 25 30  1  0  0  0  0
 28 35  1  0  0  0  0
 33 35  2  0  0  0  0
 34 35  2  0  0  0  0
  1 37  1  0  0  0  0
  2 38  1  0  0  0  0
  3 39  1  0  0  0  0
  4 40  1  0  0  0  0
  5 41  1  0  0  0  0
  6 42  1  0  0  0  0
  7 43  1  0  0  0  0
  8 44  1  0  0  0  0
 18 45  1  0  0  0  0
 18 46  1  0  0  0  0
 19 47  1  0  0  0  0
 19 48  1  0  0  0  0
 20 49  1  0  0  0  0
 20 50  1  0  0  0  0
 21 51  1  0  0  0  0
 21 52  1  0  0  0  0
 23 53  1  0  0  0  0
 23 54  1  0  0  0  0
 23 55  1  0  0  0  0
 24 56  1  0  0  0  0
 24 57  1  0  0  0  0
 24 58  1  0  0  0  0
 25 59  1  0  0  0  0
 25 60  1  0  0  0  0
 28 61  1  0  0  0  0
 29 62  1  0  0  0  0
 30 63  1  0  0  0  0
M  CHG  1  30   1
M  END
> <scaffold>
tetrahydroisoquinoline-5spiro-isoquinoline

> <compound>
MAT-POS-b4d6b7fc-7

> <compound_smiles>
CNC(=O)CN1Cc2ccc(cc2C3(C1)CCN(C3=O)c4cncc5c4ccc(c5)NS(=O)(=O)C)Cl

> <enantiomer_smiles>
CNC(=O)C[N@]1Cc2ccc(cc2[C@@]3(C1)CCN(C3=O)c4cncc5c4ccc(c5)NS(=O)(=O)C)Cl

> <clash_score>
1.6341741406451666

> <docking_score>
3.4028234663852886e+38

> <overlap_score>
0.9808095097541809

> <MMFF_internal_energy>
107.4434022039043

> <docked_smiles>
CNC(=O)C[N@H+]1Cc2ccc(cc2[C@@]3(C1)CCN(C3=O)c4cncc5c4ccc(c5)NS(=O)(=O)C)Cl

$$$$
MAT-POS-1d5ab790-1_1
  -OEChem-01042202313D

 58 63  0     1  0  0  0  0  0999 V2000
    6.5923    2.6670   28.4298 C   0  0  0  0  0  0  0  0  0  0  0  0
    3.3444    2.6278   20.4409 C   0  0  0  0  0  0  0  0  0  0  0  0
    3.7877    2.4205   19.1658 C   0  0  0  0  0  0  0  0  0  0  0  0
   12.0781    0.0316   24.1532 C   0  0  0  0  0  0  0  0  0  0  0  0
    3.8974    1.9290   21.5048 C   0  0  0  0  0  0  0  0  0  0  0  0
   12.9147   -0.6032   23.2559 C   0  0  0  0  0  0  0  0  0  0  0  0
   11.0005   -1.4332   22.0435 C   0  0  0  0  0  0  0  0  0  0  0  0
    5.3288    1.2339   17.6062 C   0  0  0  0  0  0  0  0  0  0  0  0
    6.8449   -0.2893   18.3747 C   0  0  0  0  0  0  0  0  0  0  0  0
    4.8238    1.4906   18.9051 C   0  0  0  0  0  0  0  0  0  0  0  0
    5.3995    0.7732   19.9944 C   0  0  0  0  0  0  0  0  0  0  0  0
   10.7056   -0.0626   23.9890 C   0  0  0  0  0  0  0  0  0  0  0  0
   10.1421   -0.7766   22.9242 C   0  0  0  0  0  0  0  0  0  0  0  0
    6.4452   -0.1472   19.6975 C   0  0  0  0  0  0  0  0  0  0  0  0
   12.3697   -1.3298   22.2224 C   0  0  0  0  0  0  0  0  0  0  0  0
    4.8986    1.0232   21.2985 C   0  0  0  0  0  0  0  0  0  0  0  0
    8.2504    0.0168   21.4265 C   0  0  0  0  0  0  0  0  0  0  0  0
    9.9496    0.5589   24.9527 C   0  0  0  0  0  0  0  0  0  0  0  0
    5.7974    0.2895   28.6968 C   0  0  0  0  0  0  0  0  0  0  0  0
    5.0772    0.8711   27.5163 C   0  0  0  0  0  0  0  0  0  0  0  0
    8.0155   -2.1541   22.4325 C   0  0  0  0  0  0  0  0  0  0  0  0
    6.9880   -1.9367   21.3575 C   0  0  0  0  0  0  0  0  0  0  0  0
    7.8737   -0.1194   23.8825 C   0  0  0  0  0  0  0  0  0  0  0  0
    6.4702    1.3516   27.8565 C   0  0  0  0  0  0  0  0  0  0  0  0
    8.6253   -0.7606   22.6923 C   0  0  3  0  0  0  0  0  0  0  0  0
    7.6088    0.9304   26.9546 C   0  0  0  0  0  0  0  0  0  0  0  0
    6.6907    3.7268   28.8917 N   0  0  0  0  0  0  0  0  0  0  0  0
    6.3072    0.3768   17.3417 N   0  0  0  0  0  0  0  0  0  0  0  0
    7.2305   -0.6898   20.7785 N   0  0  0  0  0  0  0  0  0  0  0  0
    8.6625    1.0133   24.4989 N   0  0  3  0  0  0  0  0  0  0  0  0
    8.8314    1.0394   21.0790 O   0  0  0  0  0  0  0  0  0  0  0  0
    6.4559    2.2241   24.9990 O   0  0  0  0  0  0  0  0  0  0  0  0
    8.6119    3.1278   25.9583 O   0  0  0  0  0  0  0  0  0  0  0  0
    7.7725    2.0180   25.5623 S   0  0  0  0  0  0  0  0  0  0  0  0
   13.4285   -2.1410   21.1076 Cl  0  0  0  0  0  0  0  0  0  0  0  0
    5.4637    0.2451   22.7511 Cl  0  0  0  0  0  0  0  0  0  0  0  0
    2.5436    3.3504   20.6371 H   0  0  0  0  0  0  0  0  0  0  0  0
    3.3414    2.9737   18.3360 H   0  0  0  0  0  0  0  0  0  0  0  0
   12.5038    0.5986   24.9731 H   0  0  0  0  0  0  0  0  0  0  0  0
    3.5007    2.1328   22.5078 H   0  0  0  0  0  0  0  0  0  0  0  0
   13.9925   -0.5165   23.3773 H   0  0  0  0  0  0  0  0  0  0  0  0
   10.6052   -2.0169   21.2237 H   0  0  0  0  0  0  0  0  0  0  0  0
    4.9145    1.7510   16.7474 H   0  0  0  0  0  0  0  0  0  0  0  0
    7.6459   -0.9748   18.1001 H   0  0  0  0  0  0  0  0  0  0  0  0
    9.7866   -0.1187   25.8304 H   0  0  0  0  0  0  0  0  0  0  0  0
   10.4816    1.4567   25.3600 H   0  0  0  0  0  0  0  0  0  0  0  0
    5.4358    0.5518   29.6847 H   0  0  0  0  0  0  0  0  0  0  0  0
    6.1481   -0.7331   28.6181 H   0  0  0  0  0  0  0  0  0  0  0  0
    4.9448    0.2375   26.6469 H   0  0  0  0  0  0  0  0  0  0  0  0
    4.2331    1.5218   27.7145 H   0  0  0  0  0  0  0  0  0  0  0  0
    7.5167   -2.5459   23.3332 H   0  0  0  0  0  0  0  0  0  0  0  0
    8.7666   -2.9029   22.1426 H   0  0  0  0  0  0  0  0  0  0  0  0
    7.0601   -2.7250   20.5715 H   0  0  0  0  0  0  0  0  0  0  0  0
    5.9530   -1.9963   21.7709 H   0  0  0  0  0  0  0  0  0  0  0  0
    6.8882    0.2643   23.5640 H   0  0  0  0  0  0  0  0  0  0  0  0
    7.6667   -0.8657   24.6729 H   0  0  0  0  0  0  0  0  0  0  0  0
    7.4436   -0.0759   26.5599 H   0  0  0  0  0  0  0  0  0  0  0  0
    8.5609    0.9485   27.4918 H   0  0  0  0  0  0  0  0  0  0  0  0
  1 24  1  0  0  0  0
  1 27  3  0  0  0  0
  2  3  2  0  0  0  0
  2  5  1  0  0  0  0
  3 10  1  0  0  0  0
  4  6  2  0  0  0  0
  4 12  1  0  0  0  0
  5 16  2  0  0  0  0
  6 15  1  0  0  0  0
  7 13  1  0  0  0  0
  7 15  2  0  0  0  0
  8 10  2  0  0  0  0
  8 28  1  0  0  0  0
  9 14  1  0  0  0  0
  9 28  2  0  0  0  0
 10 11  1  0  0  0  0
 11 14  2  0  0  0  0
 11 16  1  0  0  0  0
 12 13  2  0  0  0  0
 12 18  1  0  0  0  0
 13 25  1  0  0  0  0
 14 29  1  0  0  0  0
 15 35  1  0  0  0  0
 16 36  1  0  0  0  0
 17 25  1  0  0  0  0
 17 29  1  0  0  0  0
 17 31  2  0  0  0  0
 18 30  1  0  0  0  0
 19 20  1  0  0  0  0
 19 24  1  0  0  0  0
 20 24  1  0  0  0  0
 21 22  1  0  0  0  0
 21 25  1  0  0  0  0
 22 29  1  0  0  0  0
 23 25  1  0  0  0  0
 23 30  1  0  0  0  0
 24 26  1  0  0  0  0
 26 34  1  0  0  0  0
 30 34  1  0  0  0  0
 32 34  2  0  0  0  0
 33 34  2  0  0  0  0
  2 37  1  0  0  0  0
  3 38  1  0  0  0  0
  4 39  1  0  0  0  0
  5 40  1  0  0  0  0
  6 41  1  0  0  0  0
  7 42  1  0  0  0  0
  8 43  1  0  0  0  0
  9 44  1  0  0  0  0
 18 45  1  0  0  0  0
 18 46  1  0  0  0  0
 19 47  1  0  0  0  0
 19 48  1  0  0  0  0
 20 49  1  0  0  0  0
 20 50  1  0  0  0  0
 21 51  1  0  0  0  0
 21 52  1  0  0  0  0
 22 53  1  0  0  0  0
 22 54  1  0  0  0  0
 23 55  1  0  0  0  0
 23 56  1  0  0  0  0
 26 57  1  0  0  0  0
 26 58  1  0  0  0  0
M  END
> <scaffold>
tetrahydroisoquinoline-5spiro-isoquinoline

> <compound>
MAT-POS-1d5ab790-1

> <compound_smiles>
c1cc2cncc(c2c(c1)Cl)N3CCC4(C3=O)CN(Cc5c4cc(cc5)Cl)S(=O)(=O)CC6(CC6)C#N

> <enantiomer_smiles>
c1cc2cncc(c2c(c1)Cl)N3CC[C@]4(C3=O)C[N@](Cc5c4cc(cc5)Cl)S(=O)(=O)CC6(CC6)C#N

> <clash_score>
0

> <docking_score>
3.4028234663852886e+38

> <overlap_score>
0.9774524569511414

> <MMFF_internal_energy>
194.84403193226711

> <docked_smiles>
c1cc2cncc(c2c(c1)Cl)N3CC[C@]4(C3=O)C[N@](Cc5c4cc(cc5)Cl)S(=O)(=O)CC6(CC6)C#N

$$$$
MAT-POS-be048f2c-8_1
  -OEChem-01042202313D

 62 67  0     1  0  0  0  0  0999 V2000
    3.3444    2.6278   20.4409 C   0  0  0  0  0  0  0  0  0  0  0  0
    3.8974    1.9290   21.5048 C   0  0  0  0  0  0  0  0  0  0  0  0
    3.7877    2.4205   19.1658 C   0  0  0  0  0  0  0  0  0  0  0  0
    4.8986    1.0232   21.2985 C   0  0  0  0  0  0  0  0  0  0  0  0
   12.0781    0.0316   24.1532 C   0  0  0  0  0  0  0  0  0  0  0  0
   12.9147   -0.6032   23.2559 C   0  0  0  0  0  0  0  0  0  0  0  0
    9.0936    3.7970   26.3391 C   0  0  0  0  0  0  0  0  0  0  0  0
   11.0005   -1.4332   22.0435 C   0  0  0  0  0  0  0  0  0  0  0  0
   10.0595    4.8198   26.2869 C   0  0  0  0  0  0  0  0  0  0  0  0
    5.3288    1.2339   17.6062 C   0  0  0  0  0  0  0  0  0  0  0  0
    6.8449   -0.2893   18.3747 C   0  0  0  0  0  0  0  0  0  0  0  0
    4.8238    1.4906   18.9051 C   0  0  0  0  0  0  0  0  0  0  0  0
    5.3995    0.7732   19.9944 C   0  0  0  0  0  0  0  0  0  0  0  0
   10.7056   -0.0626   23.9890 C   0  0  0  0  0  0  0  0  0  0  0  0
   10.1421   -0.7766   22.9242 C   0  0  0  0  0  0  0  0  0  0  0  0
    6.4452   -0.1472   19.6975 C   0  0  0  0  0  0  0  0  0  0  0  0
   12.3697   -1.3298   22.2224 C   0  0  0  0  0  0  0  0  0  0  0  0
    9.0025    3.3443   25.0456 C   0  0  0  0  0  0  0  0  0  0  0  0
    8.2504    0.0168   21.4265 C   0  0  0  0  0  0  0  0  0  0  0  0
    8.1479    2.2775   24.5039 C   0  0  0  0  0  0  0  0  0  0  0  0
    9.9496    0.5589   24.9527 C   0  0  0  0  0  0  0  0  0  0  0  0
    8.0155   -2.1541   22.4325 C   0  0  0  0  0  0  0  0  0  0  0  0
    6.9880   -1.9367   21.3575 C   0  0  0  0  0  0  0  0  0  0  0  0
    7.8737   -0.1194   23.8825 C   0  0  0  0  0  0  0  0  0  0  0  0
    8.6253   -0.7606   22.6923 C   0  0  3  0  0  0  0  0  0  0  0  0
    9.7614    4.9803   20.6282 C   0  0  0  0  0  0  0  0  0  0  0  0
    9.4761    5.1079   22.1155 C   0  0  0  0  0  0  0  0  0  0  0  0
   10.1552    3.9943   22.9097 C   0  0  0  0  0  0  0  0  0  0  0  0
    6.3072    0.3768   17.3417 N   0  0  0  0  0  0  0  0  0  0  0  0
   10.5473    5.0060   25.0576 N   0  0  0  0  0  0  0  0  0  0  0  0
    9.8853    4.0941   24.3253 N   0  0  0  0  0  0  0  0  0  0  0  0
    7.2305   -0.6898   20.7785 N   0  0  0  0  0  0  0  0  0  0  0  0
    8.6625    1.0133   24.4989 N   0  0  0  0  0  0  0  0  0  0  0  0
    8.7600    1.0855   21.1262 O   0  0  0  0  0  0  0  0  0  0  0  0
    7.0365    2.6212   24.1037 O   0  0  0  0  0  0  0  0  0  0  0  0
   13.4297   -2.1471   21.1135 Cl  0  0  0  0  0  0  0  0  0  0  0  0
    2.5443    3.3508   20.6368 H   0  0  0  0  0  0  0  0  0  0  0  0
    3.5189    2.1137   22.5166 H   0  0  0  0  0  0  0  0  0  0  0  0
    3.3421    2.9744   18.3363 H   0  0  0  0  0  0  0  0  0  0  0  0
    5.3131    0.4893   22.1569 H   0  0  0  0  0  0  0  0  0  0  0  0
   12.5054    0.5873   24.9795 H   0  0  0  0  0  0  0  0  0  0  0  0
   13.9928   -0.5292   23.3862 H   0  0  0  0  0  0  0  0  0  0  0  0
    8.5438    3.4413   27.1986 H   0  0  0  0  0  0  0  0  0  0  0  0
   10.6151   -2.0340   21.2349 H   0  0  0  0  0  0  0  0  0  0  0  0
   10.4287    5.4370   27.0934 H   0  0  0  0  0  0  0  0  0  0  0  0
    4.9151    1.7511   16.7471 H   0  0  0  0  0  0  0  0  0  0  0  0
    7.6455   -0.9765   18.1038 H   0  0  0  0  0  0  0  0  0  0  0  0
    9.7850   -0.0928   25.8506 H   0  0  0  0  0  0  0  0  0  0  0  0
   10.4594    1.4725   25.3577 H   0  0  0  0  0  0  0  0  0  0  0  0
    7.5133   -2.5697   23.3190 H   0  0  0  0  0  0  0  0  0  0  0  0
    8.7734   -2.8987   22.1394 H   0  0  0  0  0  0  0  0  0  0  0  0
    7.0532   -2.7254   20.5703 H   0  0  0  0  0  0  0  0  0  0  0  0
    5.9526   -1.9949   21.7726 H   0  0  0  0  0  0  0  0  0  0  0  0
    6.9275    0.3346   23.5578 H   0  0  0  0  0  0  0  0  0  0  0  0
    7.6195   -0.8485   24.6559 H   0  0  0  0  0  0  0  0  0  0  0  0
    9.4256    4.0110   20.2463 H   0  0  0  0  0  0  0  0  0  0  0  0
   10.8361    5.0661   20.4395 H   0  0  0  0  0  0  0  0  0  0  0  0
    9.2531    5.7677   20.0625 H   0  0  0  0  0  0  0  0  0  0  0  0
    9.8231    6.0869   22.4672 H   0  0  0  0  0  0  0  0  0  0  0  0
    8.3920    5.0802   22.2793 H   0  0  0  0  0  0  0  0  0  0  0  0
   11.2431    4.0226   22.7753 H   0  0  0  0  0  0  0  0  0  0  0  0
    9.8141    3.0076   22.5744 H   0  0  0  0  0  0  0  0  0  0  0  0
  1  2  2  0  0  0  0
  1  3  1  0  0  0  0
  2  4  1  0  0  0  0
  3 12  2  0  0  0  0
  4 13  2  0  0  0  0
  5  6  2  0  0  0  0
  5 14  1  0  0  0  0
  6 17  1  0  0  0  0
  7  9  1  0  0  0  0
  7 18  2  0  0  0  0
  8 15  1  0  0  0  0
  8 17  2  0  0  0  0
  9 30  2  0  0  0  0
 10 12  1  0  0  0  0
 10 29  2  0  0  0  0
 11 16  2  0  0  0  0
 11 29  1  0  0  0  0
 12 13  1  0  0  0  0
 13 16  1  0  0  0  0
 14 15  2  0  0  0  0
 14 21  1  0  0  0  0
 15 25  1  0  0  0  0
 16 32  1  0  0  0  0
 17 36  1  0  0  0  0
 18 20  1  0  0  0  0
 18 31  1  0  0  0  0
 19 25  1  0  0  0  0
 19 32  1  0  0  0  0
 19 34  2  0  0  0  0
 20 33  1  0  0  0  0
 20 35  2  0  0  0  0
 21 33  1  0  0  0  0
 22 23  1  0  0  0  0
 22 25  1  0  0  0  0
 23 32  1  0  0  0  0
 24 25  1  0  0  0  0
 24 33  1  0  0  0  0
 26 27  1  0  0  0  0
 27 28  1  0  0  0  0
 28 31  1  0  0  0  0
 30 31  1  0  0  0  0
  1 37  1  0  0  0  0
  2 38  1  0  0  0  0
  3 39  1  0  0  0  0
  4 40  1  0  0  0  0
  5 41  1  0  0  0  0
  6 42  1  0  0  0  0
  7 43  1  0  0  0  0
  8 44  1  0  0  0  0
  9 45  1  0  0  0  0
 10 46  1  0  0  0  0
 11 47  1  0  0  0  0
 21 48  1  0  0  0  0
 21 49  1  0  0  0  0
 22 50  1  0  0  0  0
 22 51  1  0  0  0  0
 23 52  1  0  0  0  0
 23 53  1  0  0  0  0
 24 54  1  0  0  0  0
 24 55  1  0  0  0  0
 26 56  1  0  0  0  0
 26 57  1  0  0  0  0
 26 58  1  0  0  0  0
 27 59  1  0  0  0  0
 27 60  1  0  0  0  0
 28 61  1  0  0  0  0
 28 62  1  0  0  0  0
M  END
> <scaffold>
tetrahydroisoquinoline-5spiro-isoquinoline

> <compound>
MAT-POS-be048f2c-8

> <compound_smiles>
CCCn1c(ccn1)C(=O)N2Cc3ccc(cc3C4(C2)CCN(C4=O)c5cncc6c5cccc6)Cl

> <enantiomer_smiles>
CCCn1c(ccn1)C(=O)N2Cc3ccc(cc3[C@@]4(C2)CCN(C4=O)c5cncc6c5cccc6)Cl

> <clash_score>
3.562330460269725

> <docking_score>
3.4028234663852886e+38

> <overlap_score>
0.9713416695594788

> <MMFF_internal_energy>
118.24486871653747

> <docked_smiles>
CCCn1c(ccn1)C(=O)N2Cc3ccc(cc3[C@@]4(C2)CCN(C4=O)c5cncc6c5cccc6)Cl

$$$$
MAT-POS-853c0ffa-7_1
  -OEChem-01042202313D

 61 66  0     1  0  0  0  0  0999 V2000
    3.3444    2.6278   20.4409 C   0  0  0  0  0  0  0  0  0  0  0  0
    3.7877    2.4205   19.1658 C   0  0  0  0  0  0  0  0  0  0  0  0
   12.0781    0.0316   24.1532 C   0  0  0  0  0  0  0  0  0  0  0  0
    3.8974    1.9290   21.5048 C   0  0  0  0  0  0  0  0  0  0  0  0
   12.9147   -0.6032   23.2559 C   0  0  0  0  0  0  0  0  0  0  0  0
   11.0005   -1.4332   22.0435 C   0  0  0  0  0  0  0  0  0  0  0  0
    5.3288    1.2339   17.6062 C   0  0  0  0  0  0  0  0  0  0  0  0
    6.8449   -0.2893   18.3747 C   0  0  0  0  0  0  0  0  0  0  0  0
    4.8238    1.4906   18.9051 C   0  0  0  0  0  0  0  0  0  0  0  0
    5.3995    0.7732   19.9944 C   0  0  0  0  0  0  0  0  0  0  0  0
   10.7056   -0.0626   23.9890 C   0  0  0  0  0  0  0  0  0  0  0  0
   10.1421   -0.7766   22.9242 C   0  0  0  0  0  0  0  0  0  0  0  0
    6.4452   -0.1472   19.6975 C   0  0  0  0  0  0  0  0  0  0  0  0
   12.3697   -1.3298   22.2224 C   0  0  0  0  0  0  0  0  0  0  0  0
    4.8986    1.0232   21.2985 C   0  0  0  0  0  0  0  0  0  0  0  0
    8.2504    0.0168   21.4265 C   0  0  0  0  0  0  0  0  0  0  0  0
    9.9496    0.5589   24.9527 C   0  0  0  0  0  0  0  0  0  0  0  0
    6.9477    1.0432   29.4808 C   0  0  0  0  0  0  0  0  0  0  0  0
    7.5627    2.3715   29.1372 C   0  0  0  0  0  0  0  0  0  0  0  0
    8.0155   -2.1541   22.4325 C   0  0  0  0  0  0  0  0  0  0  0  0
    6.9880   -1.9367   21.3575 C   0  0  0  0  0  0  0  0  0  0  0  0
    7.8737   -0.1194   23.8825 C   0  0  0  0  0  0  0  0  0  0  0  0
    8.6253   -0.7606   22.6923 C   0  0  3  0  0  0  0  0  0  0  0  0
    6.8379    1.5828   28.0804 C   0  0  0  0  0  0  0  0  0  0  0  0
    4.6832    1.0113   27.3367 C   0  0  0  0  0  0  0  0  0  0  0  0
    7.6088    0.9304   26.9546 C   0  0  0  0  0  0  0  0  0  0  0  0
    6.3072    0.3768   17.3417 N   0  0  0  0  0  0  0  0  0  0  0  0
    7.2305   -0.6898   20.7785 N   0  0  0  0  0  0  0  0  0  0  0  0
    8.6625    1.0133   24.4989 N   0  0  3  0  0  0  0  0  0  0  0  0
    8.8314    1.0394   21.0790 O   0  0  0  0  0  0  0  0  0  0  0  0
    6.4559    2.2241   24.9990 O   0  0  0  0  0  0  0  0  0  0  0  0
    8.6119    3.1278   25.9583 O   0  0  0  0  0  0  0  0  0  0  0  0
    5.5439    2.0759   27.6956 O   0  0  0  0  0  0  0  0  0  0  0  0
    7.7725    2.0180   25.5623 S   0  0  0  0  0  0  0  0  0  0  0  0
   13.4285   -2.1410   21.1076 Cl  0  0  0  0  0  0  0  0  0  0  0  0
    5.4637    0.2451   22.7511 Cl  0  0  0  0  0  0  0  0  0  0  0  0
    2.5436    3.3504   20.6371 H   0  0  0  0  0  0  0  0  0  0  0  0
    3.3414    2.9737   18.3360 H   0  0  0  0  0  0  0  0  0  0  0  0
   12.5038    0.5986   24.9731 H   0  0  0  0  0  0  0  0  0  0  0  0
    3.5007    2.1328   22.5078 H   0  0  0  0  0  0  0  0  0  0  0  0
   13.9925   -0.5165   23.3773 H   0  0  0  0  0  0  0  0  0  0  0  0
   10.6052   -2.0169   21.2237 H   0  0  0  0  0  0  0  0  0  0  0  0
    4.9145    1.7510   16.7474 H   0  0  0  0  0  0  0  0  0  0  0  0
    7.6459   -0.9748   18.1001 H   0  0  0  0  0  0  0  0  0  0  0  0
    9.7866   -0.1187   25.8304 H   0  0  0  0  0  0  0  0  0  0  0  0
   10.4816    1.4567   25.3600 H   0  0  0  0  0  0  0  0  0  0  0  0
    7.6181    0.2123   29.6648 H   0  0  0  0  0  0  0  0  0  0  0  0
    6.0602    1.0451   30.1019 H   0  0  0  0  0  0  0  0  0  0  0  0
    7.0870    3.2628   29.5287 H   0  0  0  0  0  0  0  0  0  0  0  0
    8.6436    2.4274   29.0913 H   0  0  0  0  0  0  0  0  0  0  0  0
    7.5167   -2.5459   23.3332 H   0  0  0  0  0  0  0  0  0  0  0  0
    8.7666   -2.9029   22.1426 H   0  0  0  0  0  0  0  0  0  0  0  0
    7.0601   -2.7250   20.5715 H   0  0  0  0  0  0  0  0  0  0  0  0
    5.9530   -1.9963   21.7709 H   0  0  0  0  0  0  0  0  0  0  0  0
    6.8882    0.2643   23.5640 H   0  0  0  0  0  0  0  0  0  0  0  0
    7.6667   -0.8657   24.6729 H   0  0  0  0  0  0  0  0  0  0  0  0
    3.7079    1.4114   27.0488 H   0  0  0  0  0  0  0  0  0  0  0  0
    4.5735    0.3289   28.1833 H   0  0  0  0  0  0  0  0  0  0  0  0
    5.1175    0.4727   26.4911 H   0  0  0  0  0  0  0  0  0  0  0  0
    7.0989    0.0296   26.6018 H   0  0  0  0  0  0  0  0  0  0  0  0
    8.6192    0.6630   27.2756 H   0  0  0  0  0  0  0  0  0  0  0  0
  1  2  2  0  0  0  0
  1  4  1  0  0  0  0
  2  9  1  0  0  0  0
  3  5  2  0  0  0  0
  3 11  1  0  0  0  0
  4 15  2  0  0  0  0
  5 14  1  0  0  0  0
  6 12  1  0  0  0  0
  6 14  2  0  0  0  0
  7  9  2  0  0  0  0
  7 27  1  0  0  0  0
  8 13  1  0  0  0  0
  8 27  2  0  0  0  0
  9 10  1  0  0  0  0
 10 13  2  0  0  0  0
 10 15  1  0  0  0  0
 11 12  2  0  0  0  0
 11 17  1  0  0  0  0
 12 23  1  0  0  0  0
 13 28  1  0  0  0  0
 14 35  1  0  0  0  0
 15 36  1  0  0  0  0
 16 23  1  0  0  0  0
 16 28  1  0  0  0  0
 16 30  2  0  0  0  0
 17 29  1  0  0  0  0
 18 19  1  0  0  0  0
 18 24  1  0  0  0  0
 19 24  1  0  0  0  0
 20 21  1  0  0  0  0
 20 23  1  0  0  0  0
 21 28  1  0  0  0  0
 22 23  1  0  0  0  0
 22 29  1  0  0  0  0
 24 26  1  0  0  0  0
 24 33  1  0  0  0  0
 25 33  1  0  0  0  0
 26 34  1  0  0  0  0
 29 34  1  0  0  0  0
 31 34  2  0  0  0  0
 32 34  2  0  0  0  0
  1 37  1  0  0  0  0
  2 38  1  0  0  0  0
  3 39  1  0  0  0  0
  4 40  1  0  0  0  0
  5 41  1  0  0  0  0
  6 42  1  0  0  0  0
  7 43  1  0  0  0  0
  8 44  1  0  0  0  0
 17 45  1  0  0  0  0
 17 46  1  0  0  0  0
 18 47  1  0  0  0  0
 18 48  1  0  0  0  0
 19 49  1  0  0  0  0
 19 50  1  0  0  0  0
 20 51  1  0  0  0  0
 20 52  1  0  0  0  0
 21 53  1  0  0  0  0
 21 54  1  0  0  0  0
 22 55  1  0  0  0  0
 22 56  1  0  0  0  0
 25 57  1  0  0  0  0
 25 58  1  0  0  0  0
 25 59  1  0  0  0  0
 26 60  1  0  0  0  0
 26 61  1  0  0  0  0
M  END
> <scaffold>
tetrahydroisoquinoline-5spiro-isoquinoline

> <compound>
MAT-POS-853c0ffa-7

> <compound_smiles>
COC1(CC1)CS(=O)(=O)N2Cc3ccc(cc3C4(C2)CCN(C4=O)c5cncc6c5c(ccc6)Cl)Cl

> <enantiomer_smiles>
COC1(CC1)CS(=O)(=O)[N@]2Cc3ccc(cc3[C@@]4(C2)CCN(C4=O)c5cncc6c5c(ccc6)Cl)Cl

> <clash_score>
0

> <docking_score>
3.4028234663852886e+38

> <overlap_score>
0.9774855971336365

> <MMFF_internal_energy>
208.83873904388213

> <docked_smiles>
COC1(CC1)CS(=O)(=O)[N@]2Cc3ccc(cc3[C@@]4(C2)CCN(C4=O)c5cncc6c5c(ccc6)Cl)Cl

$$$$
LUO-POS-ed2cfb03-1_1
  -OEChem-01042202313D

 65 70  0     1  0  0  0  0  0999 V2000
    3.3444    2.6278   20.4409 C   0  0  0  0  0  0  0  0  0  0  0  0
    3.8974    1.9290   21.5048 C   0  0  0  0  0  0  0  0  0  0  0  0
    3.7877    2.4205   19.1658 C   0  0  0  0  0  0  0  0  0  0  0  0
    4.8986    1.0232   21.2985 C   0  0  0  0  0  0  0  0  0  0  0  0
   12.0781    0.0316   24.1532 C   0  0  0  0  0  0  0  0  0  0  0  0
   12.9147   -0.6032   23.2559 C   0  0  0  0  0  0  0  0  0  0  0  0
   11.0005   -1.4332   22.0435 C   0  0  0  0  0  0  0  0  0  0  0  0
    5.3288    1.2339   17.6062 C   0  0  0  0  0  0  0  0  0  0  0  0
    6.8449   -0.2893   18.3747 C   0  0  0  0  0  0  0  0  0  0  0  0
    4.8238    1.4906   18.9051 C   0  0  0  0  0  0  0  0  0  0  0  0
    5.3995    0.7732   19.9944 C   0  0  0  0  0  0  0  0  0  0  0  0
   10.7056   -0.0626   23.9890 C   0  0  0  0  0  0  0  0  0  0  0  0
   10.1421   -0.7766   22.9242 C   0  0  0  0  0  0  0  0  0  0  0  0
    6.4452   -0.1472   19.6975 C   0  0  0  0  0  0  0  0  0  0  0  0
   12.3697   -1.3298   22.2224 C   0  0  0  0  0  0  0  0  0  0  0  0
    8.2504    0.0168   21.4265 C   0  0  0  0  0  0  0  0  0  0  0  0
    9.9496    0.5589   24.9527 C   0  0  0  0  0  0  0  0  0  0  0  0
    8.0155   -2.1541   22.4325 C   0  0  0  0  0  0  0  0  0  0  0  0
    6.9880   -1.9367   21.3575 C   0  0  0  0  0  0  0  0  0  0  0  0
    9.0365    3.5179   22.7476 C   0  0  0  0  0  0  0  0  0  0  0  0
    6.8212    4.3548   23.4480 C   0  0  0  0  0  0  0  0  0  0  0  0
    7.8737   -0.1194   23.8825 C   0  0  0  0  0  0  0  0  0  0  0  0
    9.6993    4.7799   23.2756 C   0  0  0  0  0  0  0  0  0  0  0  0
    7.4532    5.6285   23.9855 C   0  0  0  0  0  0  0  0  0  0  0  0
    8.6253   -0.7606   22.6923 C   0  0  3  0  0  0  0  0  0  0  0  0
    9.3368    7.2258   23.6201 C   0  0  0  0  0  0  0  0  0  0  0  0
    6.3072    0.3768   17.3417 N   0  0  0  0  0  0  0  0  0  0  0  0
    7.2305   -0.6898   20.7785 N   0  0  0  0  0  0  0  0  0  0  0  0
    8.6625    1.0133   24.4989 N   0  0  3  0  0  0  0  0  0  0  0  0
    7.7888    3.2253   23.5042 N   0  0  0  0  0  0  0  0  0  0  0  0
    8.7129    5.9238   23.2028 N   0  3  0  0  0  0  0  0  0  0  0  0
    8.7514    1.0901   21.1243 O   0  0  0  0  0  0  0  0  0  0  0  0
    6.6232    2.0961   25.4940 O   0  0  0  0  0  0  0  0  0  0  0  0
    8.9050    3.1269   25.8114 O   0  0  0  0  0  0  0  0  0  0  0  0
    7.9493    2.4047   24.9925 S   0  0  0  0  0  0  0  0  0  0  0  0
   13.4297   -2.1462   21.1126 Cl  0  0  0  0  0  0  0  0  0  0  0  0
    2.5443    3.3508   20.6368 H   0  0  0  0  0  0  0  0  0  0  0  0
    3.5189    2.1137   22.5166 H   0  0  0  0  0  0  0  0  0  0  0  0
    3.3421    2.9744   18.3363 H   0  0  0  0  0  0  0  0  0  0  0  0
    5.3131    0.4893   22.1569 H   0  0  0  0  0  0  0  0  0  0  0  0
   12.5046    0.5852   24.9818 H   0  0  0  0  0  0  0  0  0  0  0  0
   13.9930   -0.5302   23.3869 H   0  0  0  0  0  0  0  0  0  0  0  0
   10.6139   -2.0326   21.2341 H   0  0  0  0  0  0  0  0  0  0  0  0
    4.9151    1.7511   16.7471 H   0  0  0  0  0  0  0  0  0  0  0  0
    7.6455   -0.9765   18.1038 H   0  0  0  0  0  0  0  0  0  0  0  0
    9.7590   -0.1307   25.8193 H   0  0  0  0  0  0  0  0  0  0  0  0
   10.4971    1.4368   25.3930 H   0  0  0  0  0  0  0  0  0  0  0  0
    7.5139   -2.5724   23.3172 H   0  0  0  0  0  0  0  0  0  0  0  0
    8.7710   -2.8991   22.1377 H   0  0  0  0  0  0  0  0  0  0  0  0
    7.0576   -2.7256   20.5712 H   0  0  0  0  0  0  0  0  0  0  0  0
    5.9526   -1.9955   21.7714 H   0  0  0  0  0  0  0  0  0  0  0  0
    8.8090    3.6156   21.6751 H   0  0  0  0  0  0  0  0  0  0  0  0
    9.7363    2.6777   22.8647 H   0  0  0  0  0  0  0  0  0  0  0  0
    5.9432    4.1111   24.0637 H   0  0  0  0  0  0  0  0  0  0  0  0
    6.4731    4.4967   22.4134 H   0  0  0  0  0  0  0  0  0  0  0  0
    6.8959    0.2848   23.5662 H   0  0  0  0  0  0  0  0  0  0  0  0
    7.6721   -0.8632   24.6716 H   0  0  0  0  0  0  0  0  0  0  0  0
   10.0052    4.6757   24.3225 H   0  0  0  0  0  0  0  0  0  0  0  0
   10.5641    5.0513   22.6621 H   0  0  0  0  0  0  0  0  0  0  0  0
    6.7792    6.4814   23.8582 H   0  0  0  0  0  0  0  0  0  0  0  0
    7.7359    5.5332   25.0398 H   0  0  0  0  0  0  0  0  0  0  0  0
    9.6329    7.1339   24.6666 H   0  0  0  0  0  0  0  0  0  0  0  0
   10.2040    7.4010   22.9806 H   0  0  0  0  0  0  0  0  0  0  0  0
    8.5892    8.0109   23.4913 H   0  0  0  0  0  0  0  0  0  0  0  0
    8.4422    6.0343   22.2144 H   0  0  0  0  0  0  0  0  0  0  0  0
  1  2  2  0  0  0  0
  1  3  1  0  0  0  0
  2  4  1  0  0  0  0
  3 10  2  0  0  0  0
  4 11  2  0  0  0  0
  5  6  2  0  0  0  0
  5 12  1  0  0  0  0
  6 15  1  0  0  0  0
  7 13  1  0  0  0  0
  7 15  2  0  0  0  0
  8 10  1  0  0  0  0
  8 27  2  0  0  0  0
  9 14  2  0  0  0  0
  9 27  1  0  0  0  0
 10 11  1  0  0  0  0
 11 14  1  0  0  0  0
 12 13  2  0  0  0  0
 12 17  1  0  0  0  0
 13 25  1  0  0  0  0
 14 28  1  0  0  0  0
 15 36  1  0  0  0  0
 16 25  1  0  0  0  0
 16 28  1  0  0  0  0
 16 32  2  0  0  0  0
 17 29  1  0  0  0  0
 18 19  1  0  0  0  0
 18 25  1  0  0  0  0
 19 28  1  0  0  0  0
 20 23  1  0  0  0  0
 20 30  1  0  0  0  0
 21 24  1  0  0  0  0
 21 30  1  0  0  0  0
 22 25  1  0  0  0  0
 22 29  1  0  0  0  0
 23 31  1  0  0  0  0
 24 31  1  0  0  0  0
 26 31  1  0  0  0  0
 29 35  1  0  0  0  0
 30 35  1  0  0  0  0
 33 35  2  0  0  0  0
 34 35  2  0  0  0  0
  1 37  1  0  0  0  0
  2 38  1  0  0  0  0
  3 39  1  0  0  0  0
  4 40  1  0  0  0  0
  5 41  1  0  0  0  0
  6 42  1  0  0  0  0
  7 43  1  0  0  0  0
  8 44  1  0  0  0  0
  9 45  1  0  0  0  0
 17 46  1  0  0  0  0
 17 47  1  0  0  0  0
 18 48  1  0  0  0  0
 18 49  1  0  0  0  0
 19 50  1  0  0  0  0
 19 51  1  0  0  0  0
 20 52  1  0  0  0  0
 20 53  1  0  0  0  0
 21 54  1  0  0  0  0
 21 55  1  0  0  0  0
 22 56  1  0  0  0  0
 22 57  1  0  0  0  0
 23 58  1  0  0  0  0
 23 59  1  0  0  0  0
 24 60  1  0  0  0  0
 24 61  1  0  0  0  0
 26 62  1  0  0  0  0
 26 63  1  0  0  0  0
 26 64  1  0  0  0  0
 31 65  1  0  0  0  0
M  CHG  1  31   1
M  END
> <scaffold>
tetrahydroisoquinoline-5spiro-isoquinoline

> <compound>
LUO-POS-ed2cfb03-1

> <compound_smiles>
CN1CCN(CC1)S(=O)(=O)N2Cc3ccc(cc3C4(C2)CCN(C4=O)c5cncc6c5cccc6)Cl

> <enantiomer_smiles>
CN1CCN(CC1)S(=O)(=O)[N@]2Cc3ccc(cc3[C@@]4(C2)CCN(C4=O)c5cncc6c5cccc6)Cl

> <clash_score>
0

> <docking_score>
3.4028234663852886e+38

> <overlap_score>
0.9702065587043762

> <MMFF_internal_energy>
29.62349782017691

> <docked_smiles>
C[NH+]1CCN(CC1)S(=O)(=O)[N@@]2Cc3ccc(cc3[C@@]4(C2)CCN(C4=O)c5cncc6c5cccc6)Cl

$$$$
EDJ-MED-a12e3a20-1_1
  -OEChem-01042202313D

 57 62  0     1  0  0  0  0  0999 V2000
    6.6108    2.5686   28.4627 C   0  0  0  0  0  0  0  0  0  0  0  0
    3.3444    2.6278   20.4409 C   0  0  0  0  0  0  0  0  0  0  0  0
    3.8974    1.9290   21.5048 C   0  0  0  0  0  0  0  0  0  0  0  0
    3.7877    2.4205   19.1658 C   0  0  0  0  0  0  0  0  0  0  0  0
    4.8986    1.0232   21.2985 C   0  0  0  0  0  0  0  0  0  0  0  0
   12.0781    0.0316   24.1532 C   0  0  0  0  0  0  0  0  0  0  0  0
   12.9147   -0.6032   23.2559 C   0  0  0  0  0  0  0  0  0  0  0  0
   11.0005   -1.4332   22.0435 C   0  0  0  0  0  0  0  0  0  0  0  0
    5.3288    1.2339   17.6062 C   0  0  0  0  0  0  0  0  0  0  0  0
    6.8449   -0.2893   18.3747 C   0  0  0  0  0  0  0  0  0  0  0  0
    4.8238    1.4906   18.9051 C   0  0  0  0  0  0  0  0  0  0  0  0
    5.3995    0.7732   19.9944 C   0  0  0  0  0  0  0  0  0  0  0  0
   10.7056   -0.0626   23.9890 C   0  0  0  0  0  0  0  0  0  0  0  0
   10.1421   -0.7766   22.9242 C   0  0  0  0  0  0  0  0  0  0  0  0
    6.4452   -0.1472   19.6975 C   0  0  0  0  0  0  0  0  0  0  0  0
   12.3697   -1.3298   22.2224 C   0  0  0  0  0  0  0  0  0  0  0  0
    8.0155   -2.1541   22.4325 C   0  0  0  0  0  0  0  0  0  0  0  0
    8.2504    0.0168   21.4265 C   0  0  0  0  0  0  0  0  0  0  0  0
    9.9496    0.5589   24.9527 C   0  0  0  0  0  0  0  0  0  0  0  0
    6.9880   -1.9367   21.3575 C   0  0  0  0  0  0  0  0  0  0  0  0
    5.8444    0.1759   28.6707 C   0  0  0  0  0  0  0  0  0  0  0  0
    5.1068    0.7819   27.5134 C   0  0  0  0  0  0  0  0  0  0  0  0
    7.8737   -0.1194   23.8825 C   0  0  0  0  0  0  0  0  0  0  0  0
    6.4976    1.2683   27.8542 C   0  0  0  0  0  0  0  0  0  0  0  0
    8.6253   -0.7606   22.6923 C   0  0  3  0  0  0  0  0  0  0  0  0
    7.6321    0.8851   26.9305 C   0  0  0  0  0  0  0  0  0  0  0  0
    6.7020    3.6162   28.9530 N   0  0  0  0  0  0  0  0  0  0  0  0
    6.3072    0.3768   17.3417 N   0  0  0  0  0  0  0  0  0  0  0  0
    7.2305   -0.6898   20.7785 N   0  0  0  0  0  0  0  0  0  0  0  0
    8.6625    1.0133   24.4989 N   0  0  3  0  0  0  0  0  0  0  0  0
    8.2945   -3.1648   22.9540 O   0  0  0  0  0  0  0  0  0  0  0  0
    8.8026    1.0674   21.1177 O   0  0  0  0  0  0  0  0  0  0  0  0
    6.4486    2.2106   25.0149 O   0  0  0  0  0  0  0  0  0  0  0  0
    8.5928    3.1256   25.9898 O   0  0  0  0  0  0  0  0  0  0  0  0
    7.7708    2.0127   25.5676 S   0  0  0  0  0  0  0  0  0  0  0  0
   13.4288   -2.1408   21.1078 Cl  0  0  0  0  0  0  0  0  0  0  0  0
    2.5443    3.3508   20.6368 H   0  0  0  0  0  0  0  0  0  0  0  0
    3.5189    2.1137   22.5166 H   0  0  0  0  0  0  0  0  0  0  0  0
    3.3421    2.9744   18.3363 H   0  0  0  0  0  0  0  0  0  0  0  0
    5.3131    0.4893   22.1569 H   0  0  0  0  0  0  0  0  0  0  0  0
   12.5043    0.5996   24.9723 H   0  0  0  0  0  0  0  0  0  0  0  0
   13.9924   -0.5159   23.3770 H   0  0  0  0  0  0  0  0  0  0  0  0
   10.6053   -2.0181   21.2239 H   0  0  0  0  0  0  0  0  0  0  0  0
    4.9151    1.7511   16.7471 H   0  0  0  0  0  0  0  0  0  0  0  0
    7.6455   -0.9765   18.1038 H   0  0  0  0  0  0  0  0  0  0  0  0
    9.7890   -0.1166   25.8344 H   0  0  0  0  0  0  0  0  0  0  0  0
   10.4822    1.4577   25.3603 H   0  0  0  0  0  0  0  0  0  0  0  0
    7.0712   -2.7510   20.5928 H   0  0  0  0  0  0  0  0  0  0  0  0
    5.9640   -1.9699   21.8103 H   0  0  0  0  0  0  0  0  0  0  0  0
    5.4893    0.4066   29.6687 H   0  0  0  0  0  0  0  0  0  0  0  0
    6.2056   -0.8401   28.5602 H   0  0  0  0  0  0  0  0  0  0  0  0
    4.9731    0.1712   26.6279 H   0  0  0  0  0  0  0  0  0  0  0  0
    4.2575    1.4174   27.7374 H   0  0  0  0  0  0  0  0  0  0  0  0
    6.8960    0.2705   23.5509 H   0  0  0  0  0  0  0  0  0  0  0  0
    7.6647   -0.8618   24.6728 H   0  0  0  0  0  0  0  0  0  0  0  0
    7.4743   -0.1117   26.5094 H   0  0  0  0  0  0  0  0  0  0  0  0
    8.5891    0.8990   27.4592 H   0  0  0  0  0  0  0  0  0  0  0  0
  1 24  1  0  0  0  0
  1 27  3  0  0  0  0
  2  3  2  0  0  0  0
  2  4  1  0  0  0  0
  3  5  1  0  0  0  0
  4 11  2  0  0  0  0
  5 12  2  0  0  0  0
  6  7  2  0  0  0  0
  6 13  1  0  0  0  0
  7 16  1  0  0  0  0
  8 14  1  0  0  0  0
  8 16  2  0  0  0  0
  9 11  1  0  0  0  0
  9 28  2  0  0  0  0
 10 15  2  0  0  0  0
 10 28  1  0  0  0  0
 11 12  1  0  0  0  0
 12 15  1  0  0  0  0
 13 14  2  0  0  0  0
 13 19  1  0  0  0  0
 14 25  1  0  0  0  0
 15 29  1  0  0  0  0
 16 36  1  0  0  0  0
 17 20  1  0  0  0  0
 17 25  1  0  0  0  0
 17 31  2  0  0  0  0
 18 25  1  0  0  0  0
 18 29  1  0  0  0  0
 18 32  2  0  0  0  0
 19 30  1  0  0  0  0
 20 29  1  0  0  0  0
 21 22  1  0  0  0  0
 21 24  1  0  0  0  0
 22 24  1  0  0  0  0
 23 25  1  0  0  0  0
 23 30  1  0  0  0  0
 24 26  1  0  0  0  0
 26 35  1  0  0  0  0
 30 35  1  0  0  0  0
 33 35  2  0  0  0  0
 34 35  2  0  0  0  0
  2 37  1  0  0  0  0
  3 38  1  0  0  0  0
  4 39  1  0  0  0  0
  5 40  1  0  0  0  0
  6 41  1  0  0  0  0
  7 42  1  0  0  0  0
  8 43  1  0  0  0  0
  9 44  1  0  0  0  0
 10 45  1  0  0  0  0
 19 46  1  0  0  0  0
 19 47  1  0  0  0  0
 20 48  1  0  0  0  0
 20 49  1  0  0  0  0
 21 50  1  0  0  0  0
 21 51  1  0  0  0  0
 22 52  1  0  0  0  0
 22 53  1  0  0  0  0
 23 54  1  0  0  0  0
 23 55  1  0  0  0  0
 26 56  1  0  0  0  0
 26 57  1  0  0  0  0
M  END
> <scaffold>
tetrahydroisoquinoline-5spiro-isoquinoline

> <compound>
EDJ-MED-a12e3a20-1

> <compound_smiles>
c1ccc2c(c1)cncc2N3CC(=O)C4(C3=O)CN(Cc5c4cc(cc5)Cl)S(=O)(=O)CC6(CC6)C#N

> <enantiomer_smiles>
c1ccc2c(c1)cncc2N3CC(=O)[C@]4(C3=O)C[N@@](Cc5c4cc(cc5)Cl)S(=O)(=O)CC6(CC6)C#N

> <clash_score>
0

> <docking_score>
3.4028234663852886e+38

> <overlap_score>
0.9812345504760742

> <MMFF_internal_energy>
121.59600108582491

> <docked_smiles>
c1ccc2c(c1)cncc2N3CC(=O)[C@]4(C3=O)C[N@](Cc5c4cc(cc5)Cl)S(=O)(=O)CC6(CC6)C#N

$$$$
VLA-UNK-61877630-3_2
  -OEChem-01042202313D

 56 60  0     1  0  0  0  0  0999 V2000
    3.3444    2.6278   20.4409 C   0  0  0  0  0  0  0  0  0  0  0  0
    3.8974    1.9290   21.5048 C   0  0  0  0  0  0  0  0  0  0  0  0
    3.7877    2.4205   19.1658 C   0  0  0  0  0  0  0  0  0  0  0  0
    4.8986    1.0232   21.2985 C   0  0  0  0  0  0  0  0  0  0  0  0
   12.0781    0.0316   24.1532 C   0  0  0  0  0  0  0  0  0  0  0  0
   12.9147   -0.6032   23.2559 C   0  0  0  0  0  0  0  0  0  0  0  0
   11.0005   -1.4332   22.0435 C   0  0  0  0  0  0  0  0  0  0  0  0
    5.3288    1.2339   17.6062 C   0  0  0  0  0  0  0  0  0  0  0  0
    6.8449   -0.2893   18.3747 C   0  0  0  0  0  0  0  0  0  0  0  0
    4.8238    1.4906   18.9051 C   0  0  0  0  0  0  0  0  0  0  0  0
    5.3995    0.7732   19.9944 C   0  0  0  0  0  0  0  0  0  0  0  0
   10.7056   -0.0626   23.9890 C   0  0  0  0  0  0  0  0  0  0  0  0
   10.1421   -0.7766   22.9242 C   0  0  0  0  0  0  0  0  0  0  0  0
    6.4452   -0.1472   19.6975 C   0  0  0  0  0  0  0  0  0  0  0  0
   12.3697   -1.3298   22.2224 C   0  0  0  0  0  0  0  0  0  0  0  0
    9.9496    0.5589   24.9527 C   0  0  0  0  0  0  0  0  0  0  0  0
    8.2504    0.0168   21.4265 C   0  0  0  0  0  0  0  0  0  0  0  0
    7.5447    2.6112   25.8003 C   0  0  0  0  0  0  0  0  0  0  0  0
    8.0155   -2.1541   22.4325 C   0  0  0  0  0  0  0  0  0  0  0  0
    6.9880   -1.9367   21.3575 C   0  0  0  0  0  0  0  0  0  0  0  0
    7.8737   -0.1194   23.8825 C   0  0  2  0  0  0  0  0  0  0  0  0
    8.6253   -0.7606   22.6923 C   0  0  2  0  0  0  0  0  0  0  0  0
    6.3891    4.4827   26.9734 C   0  0  0  0  0  0  0  0  0  0  0  0
    8.2230    2.3049   24.4895 C   0  0  0  0  0  0  0  0  0  0  0  0
    6.4657    0.3925   23.5358 C   0  0  0  0  0  0  0  0  0  0  0  0
    6.3072    0.3768   17.3417 N   0  0  0  0  0  0  0  0  0  0  0  0
    7.2305   -0.6898   20.7785 N   0  0  0  0  0  0  0  0  0  0  0  0
    8.6625    1.0133   24.4989 N   0  0  0  0  0  0  0  0  0  0  0  0
    7.0821    3.9189   25.8375 N   0  0  0  0  0  0  0  0  0  0  0  0
   10.3165    0.7100   26.1132 O   0  0  0  0  0  0  0  0  0  0  0  0
    8.7490    1.0913   21.1193 O   0  0  0  0  0  0  0  0  0  0  0  0
    7.4248    1.7915   26.7070 O   0  0  0  0  0  0  0  0  0  0  0  0
    5.9117    0.9415   24.6232 F   0  0  0  0  0  0  0  0  0  0  0  0
    6.5321    1.3084   22.5625 F   0  0  0  0  0  0  0  0  0  0  0  0
    5.7122   -0.6348   23.1262 F   0  0  0  0  0  0  0  0  0  0  0  0
   13.4299   -2.1418   21.1101 Cl  0  0  0  0  0  0  0  0  0  0  0  0
    2.5443    3.3508   20.6368 H   0  0  0  0  0  0  0  0  0  0  0  0
    3.5189    2.1137   22.5166 H   0  0  0  0  0  0  0  0  0  0  0  0
    3.3421    2.9744   18.3363 H   0  0  0  0  0  0  0  0  0  0  0  0
    5.3131    0.4893   22.1569 H   0  0  0  0  0  0  0  0  0  0  0  0
   12.5209    0.5974   24.9683 H   0  0  0  0  0  0  0  0  0  0  0  0
   13.9927   -0.5189   23.3792 H   0  0  0  0  0  0  0  0  0  0  0  0
   10.6239   -2.0174   21.2223 H   0  0  0  0  0  0  0  0  0  0  0  0
    4.9151    1.7511   16.7471 H   0  0  0  0  0  0  0  0  0  0  0  0
    7.6455   -0.9765   18.1038 H   0  0  0  0  0  0  0  0  0  0  0  0
    7.5978   -2.6278   23.3253 H   0  0  0  0  0  0  0  0  0  0  0  0
    8.7791   -2.8336   22.0329 H   0  0  0  0  0  0  0  0  0  0  0  0
    7.0352   -2.7466   20.5923 H   0  0  0  0  0  0  0  0  0  0  0  0
    5.9506   -1.9559   21.7611 H   0  0  0  0  0  0  0  0  0  0  0  0
    7.7690   -0.8693   24.6791 H   0  0  0  0  0  0  0  0  0  0  0  0
    5.3073    4.3169   26.8629 H   0  0  0  0  0  0  0  0  0  0  0  0
    6.7419    3.9978   27.8956 H   0  0  0  0  0  0  0  0  0  0  0  0
    6.5908    5.5627   27.0268 H   0  0  0  0  0  0  0  0  0  0  0  0
    7.5152    2.4441   23.6670 H   0  0  0  0  0  0  0  0  0  0  0  0
    9.0776    2.9732   24.3491 H   0  0  0  0  0  0  0  0  0  0  0  0
    7.2384    4.5093   25.0257 H   0  0  0  0  0  0  0  0  0  0  0  0
  1  2  2  0  0  0  0
  1  3  1  0  0  0  0
  2  4  1  0  0  0  0
  3 10  2  0  0  0  0
  4 11  2  0  0  0  0
  5  6  2  0  0  0  0
  5 12  1  0  0  0  0
  6 15  1  0  0  0  0
  7 13  1  0  0  0  0
  7 15  2  0  0  0  0
  8 10  1  0  0  0  0
  8 26  2  0  0  0  0
  9 14  2  0  0  0  0
  9 26  1  0  0  0  0
 10 11  1  0  0  0  0
 11 14  1  0  0  0  0
 12 13  2  0  0  0  0
 12 16  1  0  0  0  0
 13 22  1  6  0  0  0
 14 27  1  0  0  0  0
 15 36  1  0  0  0  0
 16 28  1  0  0  0  0
 16 30  2  0  0  0  0
 17 22  1  6  0  0  0
 17 27  1  0  0  0  0
 17 31  2  0  0  0  0
 18 24  1  0  0  0  0
 18 29  1  0  0  0  0
 18 32  2  0  0  0  0
 19 20  1  0  0  0  0
 19 22  1  1  0  0  0
 20 27  1  0  0  0  0
 21 22  1  1  0  0  0
 21 25  1  6  0  0  0
 21 28  1  0  0  0  0
 23 29  1  0  0  0  0
 24 28  1  0  0  0  0
 25 33  1  0  0  0  0
 25 34  1  0  0  0  0
 25 35  1  0  0  0  0
  1 37  1  0  0  0  0
  2 38  1  0  0  0  0
  3 39  1  0  0  0  0
  4 40  1  0  0  0  0
  5 41  1  0  0  0  0
  6 42  1  0  0  0  0
  7 43  1  0  0  0  0
  8 44  1  0  0  0  0
  9 45  1  0  0  0  0
 19 46  1  0  0  0  0
 19 47  1  0  0  0  0
 20 48  1  0  0  0  0
 20 49  1  0  0  0  0
 21 50  1  0  0  0  0
 23 51  1  0  0  0  0
 23 52  1  0  0  0  0
 23 53  1  0  0  0  0
 24 54  1  0  0  0  0
 24 55  1  0  0  0  0
 29 56  1  0  0  0  0
M  END
> <scaffold>
tetrahydroisoquinoline-5spiro-isoquinoline

> <compound>
VLA-UNK-61877630-3

> <compound_smiles>
CNC(=O)CN1C([C@@]2(CCN(C2=O)c3cncc4c3cccc4)c5cc(ccc5C1=O)Cl)C(F)(F)F

> <enantiomer_smiles>
CNC(=O)CN1[C@H]([C@@]2(CCN(C2=O)c3cncc4c3cccc4)c5cc(ccc5C1=O)Cl)C(F)(F)F

> <clash_score>
0

> <docking_score>
3.4028234663852886e+38

> <overlap_score>
1.009702444076538

> <MMFF_internal_energy>
275.97923591964525

> <docked_smiles>
CNC(=O)CN1[C@H]([C@@]2(CCN(C2=O)c3cncc4c3cccc4)c5cc(ccc5C1=O)Cl)C(F)(F)F

$$$$
MAT-POS-50a80394-1_1
  -OEChem-01042202313D

 61 66  0     1  0  0  0  0  0999 V2000
    6.5981    2.6643   28.4290 C   0  0  0  0  0  0  0  0  0  0  0  0
    3.3444    2.6278   20.4409 C   0  0  0  0  0  0  0  0  0  0  0  0
    3.8974    1.9290   21.5048 C   0  0  0  0  0  0  0  0  0  0  0  0
    3.7877    2.4205   19.1658 C   0  0  0  0  0  0  0  0  0  0  0  0
    4.8986    1.0232   21.2985 C   0  0  0  0  0  0  0  0  0  0  0  0
   12.0781    0.0316   24.1532 C   0  0  0  0  0  0  0  0  0  0  0  0
   12.9147   -0.6032   23.2559 C   0  0  0  0  0  0  0  0  0  0  0  0
   11.0005   -1.4332   22.0435 C   0  0  0  0  0  0  0  0  0  0  0  0
    5.3288    1.2339   17.6062 C   0  0  0  0  0  0  0  0  0  0  0  0
    6.8449   -0.2893   18.3747 C   0  0  0  0  0  0  0  0  0  0  0  0
    4.8238    1.4906   18.9051 C   0  0  0  0  0  0  0  0  0  0  0  0
    5.3995    0.7732   19.9944 C   0  0  0  0  0  0  0  0  0  0  0  0
   10.7056   -0.0626   23.9890 C   0  0  0  0  0  0  0  0  0  0  0  0
   10.1421   -0.7766   22.9242 C   0  0  0  0  0  0  0  0  0  0  0  0
    6.4452   -0.1472   19.6975 C   0  0  0  0  0  0  0  0  0  0  0  0
   12.3697   -1.3298   22.2224 C   0  0  0  0  0  0  0  0  0  0  0  0
    8.2504    0.0168   21.4265 C   0  0  0  0  0  0  0  0  0  0  0  0
    9.9496    0.5589   24.9527 C   0  0  0  0  0  0  0  0  0  0  0  0
    5.8066    0.2855   28.6946 C   0  0  0  0  0  0  0  0  0  0  0  0
    5.0836    0.8676   27.5160 C   0  0  0  0  0  0  0  0  0  0  0  0
    6.9880   -1.9367   21.3575 C   0  0  0  0  0  0  0  0  0  0  0  0
    7.8737   -0.1194   23.8825 C   0  0  0  0  0  0  0  0  0  0  0  0
    8.0155   -2.1541   22.4325 C   0  0  2  0  0  0  0  0  0  0  0  0
    6.4766    1.3495   27.8544 C   0  0  0  0  0  0  0  0  0  0  0  0
    8.6253   -0.7606   22.6923 C   0  0  3  0  0  0  0  0  0  0  0  0
    8.9923   -3.2811   22.0739 C   0  0  0  0  0  0  0  0  0  0  0  0
    7.6141    0.9308   26.9500 C   0  0  0  0  0  0  0  0  0  0  0  0
    6.6960    3.7237   28.8920 N   0  0  0  0  0  0  0  0  0  0  0  0
    6.3072    0.3768   17.3417 N   0  0  0  0  0  0  0  0  0  0  0  0
    7.2305   -0.6898   20.7785 N   0  0  0  0  0  0  0  0  0  0  0  0
    8.6625    1.0133   24.4989 N   0  0  3  0  0  0  0  0  0  0  0  0
    8.8294    1.0393   21.0745 O   0  0  0  0  0  0  0  0  0  0  0  0
    6.4539    2.2392   25.0085 O   0  0  0  0  0  0  0  0  0  0  0  0
    8.6270    3.1216   25.9491 O   0  0  0  0  0  0  0  0  0  0  0  0
    7.7740    2.0203   25.5587 S   0  0  0  0  0  0  0  0  0  0  0  0
   13.4285   -2.1429   21.1090 Cl  0  0  0  0  0  0  0  0  0  0  0  0
    2.5443    3.3508   20.6368 H   0  0  0  0  0  0  0  0  0  0  0  0
    3.5189    2.1137   22.5166 H   0  0  0  0  0  0  0  0  0  0  0  0
    3.3421    2.9744   18.3363 H   0  0  0  0  0  0  0  0  0  0  0  0
    5.3131    0.4893   22.1569 H   0  0  0  0  0  0  0  0  0  0  0  0
   12.5041    0.5971   24.9736 H   0  0  0  0  0  0  0  0  0  0  0  0
   13.9927   -0.5197   23.3794 H   0  0  0  0  0  0  0  0  0  0  0  0
   10.6063   -2.0193   21.2257 H   0  0  0  0  0  0  0  0  0  0  0  0
    4.9151    1.7511   16.7471 H   0  0  0  0  0  0  0  0  0  0  0  0
    7.6455   -0.9765   18.1038 H   0  0  0  0  0  0  0  0  0  0  0  0
    9.7880   -0.1167   25.8329 H   0  0  0  0  0  0  0  0  0  0  0  0
   10.4812    1.4583   25.3585 H   0  0  0  0  0  0  0  0  0  0  0  0
    5.4464    0.5462   29.6834 H   0  0  0  0  0  0  0  0  0  0  0  0
    6.1585   -0.7365   28.6140 H   0  0  0  0  0  0  0  0  0  0  0  0
    4.9504    0.2349   26.6461 H   0  0  0  0  0  0  0  0  0  0  0  0
    4.2390    1.5171   27.7166 H   0  0  0  0  0  0  0  0  0  0  0  0
    7.0389   -2.7205   20.5617 H   0  0  0  0  0  0  0  0  0  0  0  0
    5.9511   -1.9856   21.7738 H   0  0  0  0  0  0  0  0  0  0  0  0
    6.8894    0.2591   23.5682 H   0  0  0  0  0  0  0  0  0  0  0  0
    7.6784   -0.8601   24.6765 H   0  0  0  0  0  0  0  0  0  0  0  0
    7.4786   -2.4985   23.3380 H   0  0  0  0  0  0  0  0  0  0  0  0
    9.5610   -3.0033   21.1862 H   0  0  0  0  0  0  0  0  0  0  0  0
    8.4441   -4.2008   21.8685 H   0  0  0  0  0  0  0  0  0  0  0  0
    9.6857   -3.4592   22.8962 H   0  0  0  0  0  0  0  0  0  0  0  0
    7.4495   -0.0753   26.5543 H   0  0  0  0  0  0  0  0  0  0  0  0
    8.5672    0.9495   27.4854 H   0  0  0  0  0  0  0  0  0  0  0  0
  1 24  1  0  0  0  0
  1 28  3  0  0  0  0
  2  3  2  0  0  0  0
  2  4  1  0  0  0  0
  3  5  1  0  0  0  0
  4 11  2  0  0  0  0
  5 12  2  0  0  0  0
  6  7  2  0  0  0  0
  6 13  1  0  0  0  0
  7 16  1  0  0  0  0
  8 14  1  0  0  0  0
  8 16  2  0  0  0  0
  9 11  1  0  0  0  0
  9 29  2  0  0  0  0
 10 15  2  0  0  0  0
 10 29  1  0  0  0  0
 11 12  1  0  0  0  0
 12 15  1  0  0  0  0
 13 14  2  0  0  0  0
 13 18  1  0  0  0  0
 14 25  1  0  0  0  0
 15 30  1  0  0  0  0
 16 36  1  0  0  0  0
 17 25  1  0  0  0  0
 17 30  1  0  0  0  0
 17 32  2  0  0  0  0
 18 31  1  0  0  0  0
 19 20  1  0  0  0  0
 19 24  1  0  0  0  0
 20 24  1  0  0  0  0
 21 23  1  0  0  0  0
 21 30  1  0  0  0  0
 22 25  1  0  0  0  0
 22 31  1  0  0  0  0
 23 25  1  0  0  0  0
 23 26  1  1  0  0  0
 24 27  1  0  0  0  0
 27 35  1  0  0  0  0
 31 35  1  0  0  0  0
 33 35  2  0  0  0  0
 34 35  2  0  0  0  0
  2 37  1  0  0  0  0
  3 38  1  0  0  0  0
  4 39  1  0  0  0  0
  5 40  1  0  0  0  0
  6 41  1  0  0  0  0
  7 42  1  0  0  0  0
  8 43  1  0  0  0  0
  9 44  1  0  0  0  0
 10 45  1  0  0  0  0
 18 46  1  0  0  0  0
 18 47  1  0  0  0  0
 19 48  1  0  0  0  0
 19 49  1  0  0  0  0
 20 50  1  0  0  0  0
 20 51  1  0  0  0  0
 21 52  1  0  0  0  0
 21 53  1  0  0  0  0
 22 54  1  0  0  0  0
 22 55  1  0  0  0  0
 23 56  1  0  0  0  0
 26 57  1  0  0  0  0
 26 58  1  0  0  0  0
 26 59  1  0  0  0  0
 27 60  1  0  0  0  0
 27 61  1  0  0  0  0
M  END
> <scaffold>
tetrahydroisoquinoline-5spiro-isoquinoline

> <compound>
MAT-POS-50a80394-1

> <compound_smiles>
CC1CN(C(=O)C12CN(Cc3c2cc(cc3)Cl)S(=O)(=O)CC4(CC4)C#N)c5cncc6c5cccc6

> <enantiomer_smiles>
C[C@@H]1CN(C(=O)[C@]12C[N@](Cc3c2cc(cc3)Cl)S(=O)(=O)CC4(CC4)C#N)c5cncc6c5cccc6

> <clash_score>
0

> <docking_score>
3.4028234663852886e+38

> <overlap_score>
0.9783474802970886

> <MMFF_internal_energy>
146.13637515838906

> <docked_smiles>
C[C@@H]1CN(C(=O)[C@]12C[N@](Cc3c2cc(cc3)Cl)S(=O)(=O)CC4(CC4)C#N)c5cncc6c5cccc6

$$$$
PET-UNK-94036022-4_1
  -OEChem-01042202313D

 58 63  0     1  0  0  0  0  0999 V2000
    9.3574    6.2505   22.8051 C   0  0  0  0  0  0  0  0  0  0  0  0
    8.6716    5.6501   23.5863 C   0  0  0  0  0  0  0  0  0  0  0  0
    3.3444    2.6278   20.4409 C   0  0  0  0  0  0  0  0  0  0  0  0
    3.8974    1.9290   21.5048 C   0  0  0  0  0  0  0  0  0  0  0  0
    3.7877    2.4205   19.1658 C   0  0  0  0  0  0  0  0  0  0  0  0
    4.8986    1.0232   21.2985 C   0  0  0  0  0  0  0  0  0  0  0  0
   12.0781    0.0316   24.1532 C   0  0  0  0  0  0  0  0  0  0  0  0
   12.9147   -0.6032   23.2559 C   0  0  0  0  0  0  0  0  0  0  0  0
   11.0005   -1.4332   22.0435 C   0  0  0  0  0  0  0  0  0  0  0  0
    5.3288    1.2339   17.6062 C   0  0  0  0  0  0  0  0  0  0  0  0
    6.8449   -0.2893   18.3747 C   0  0  0  0  0  0  0  0  0  0  0  0
    4.8238    1.4906   18.9051 C   0  0  0  0  0  0  0  0  0  0  0  0
    5.3995    0.7732   19.9944 C   0  0  0  0  0  0  0  0  0  0  0  0
   10.7056   -0.0626   23.9890 C   0  0  0  0  0  0  0  0  0  0  0  0
   10.1421   -0.7766   22.9242 C   0  0  0  0  0  0  0  0  0  0  0  0
    6.4452   -0.1472   19.6975 C   0  0  0  0  0  0  0  0  0  0  0  0
   12.3697   -1.3298   22.2224 C   0  0  0  0  0  0  0  0  0  0  0  0
    6.9880   -1.9367   21.3575 C   0  0  0  0  0  0  0  0  0  0  0  0
    8.2504    0.0168   21.4265 C   0  0  0  0  0  0  0  0  0  0  0  0
    9.9496    0.5589   24.9527 C   0  0  0  0  0  0  0  0  0  0  0  0
    8.0155   -2.1541   22.4325 C   0  0  0  0  0  0  0  0  0  0  0  0
    7.0482    5.7470   25.5127 C   0  0  0  0  0  0  0  0  0  0  0  0
    6.3495    5.0646   24.3740 C   0  0  0  0  0  0  0  0  0  0  0  0
    7.8737   -0.1194   23.8825 C   0  0  0  0  0  0  0  0  0  0  0  0
    7.8485    4.9301   24.5232 C   0  0  0  0  0  0  0  0  0  0  0  0
    8.6253   -0.7606   22.6923 C   0  0  2  0  0  0  0  0  0  0  0  0
    8.4018    3.5992   24.9813 C   0  0  0  0  0  0  0  0  0  0  0  0
    6.3072    0.3768   17.3417 N   0  0  0  0  0  0  0  0  0  0  0  0
    7.2305   -0.6898   20.7785 N   0  0  0  0  0  0  0  0  0  0  0  0
    8.6625    1.0133   24.4989 N   0  0  3  0  0  0  0  0  0  0  0  0
    6.1222   -2.7602   21.1043 O   0  0  0  0  0  0  0  0  0  0  0  0
    8.7910    1.0611   21.1020 O   0  0  0  0  0  0  0  0  0  0  0  0
    7.4262    2.5285   22.8067 O   0  0  0  0  0  0  0  0  0  0  0  0
    9.9336    2.7175   23.0568 O   0  0  0  0  0  0  0  0  0  0  0  0
    8.6218    2.4827   23.6200 S   0  0  0  0  0  0  0  0  0  0  0  0
   13.4285   -2.1416   21.1080 Cl  0  0  0  0  0  0  0  0  0  0  0  0
    9.9659    6.7831   22.1122 H   0  0  0  0  0  0  0  0  0  0  0  0
    2.5443    3.3508   20.6368 H   0  0  0  0  0  0  0  0  0  0  0  0
    3.5189    2.1137   22.5166 H   0  0  0  0  0  0  0  0  0  0  0  0
    3.3421    2.9744   18.3363 H   0  0  0  0  0  0  0  0  0  0  0  0
    5.3131    0.4893   22.1569 H   0  0  0  0  0  0  0  0  0  0  0  0
   12.5036    0.5928   24.9773 H   0  0  0  0  0  0  0  0  0  0  0  0
   13.9927   -0.5225   23.3814 H   0  0  0  0  0  0  0  0  0  0  0  0
   10.6045   -2.0211   21.2270 H   0  0  0  0  0  0  0  0  0  0  0  0
    4.9151    1.7511   16.7471 H   0  0  0  0  0  0  0  0  0  0  0  0
    7.6455   -0.9765   18.1038 H   0  0  0  0  0  0  0  0  0  0  0  0
    9.7608   -0.1291   25.8168 H   0  0  0  0  0  0  0  0  0  0  0  0
   10.4951    1.4388   25.3829 H   0  0  0  0  0  0  0  0  0  0  0  0
    7.5419   -2.5808   23.3241 H   0  0  0  0  0  0  0  0  0  0  0  0
    8.7461   -2.8785   22.0508 H   0  0  0  0  0  0  0  0  0  0  0  0
    7.1206    6.8283   25.4818 H   0  0  0  0  0  0  0  0  0  0  0  0
    6.8936    5.3485   26.5088 H   0  0  0  0  0  0  0  0  0  0  0  0
    5.7260    4.2093   24.6076 H   0  0  0  0  0  0  0  0  0  0  0  0
    5.9536    5.6897   23.5817 H   0  0  0  0  0  0  0  0  0  0  0  0
    6.8898    0.2774   23.5690 H   0  0  0  0  0  0  0  0  0  0  0  0
    7.6642   -0.8749   24.6614 H   0  0  0  0  0  0  0  0  0  0  0  0
    7.7223    3.1154   25.6884 H   0  0  0  0  0  0  0  0  0  0  0  0
    9.3783    3.7242   25.4570 H   0  0  0  0  0  0  0  0  0  0  0  0
  1  2  3  0  0  0  0
  2 25  1  0  0  0  0
  3  4  2  0  0  0  0
  3  5  1  0  0  0  0
  4  6  1  0  0  0  0
  5 12  2  0  0  0  0
  6 13  2  0  0  0  0
  7  8  2  0  0  0  0
  7 14  1  0  0  0  0
  8 17  1  0  0  0  0
  9 15  1  0  0  0  0
  9 17  2  0  0  0  0
 10 12  1  0  0  0  0
 10 28  2  0  0  0  0
 11 16  2  0  0  0  0
 11 28  1  0  0  0  0
 12 13  1  0  0  0  0
 13 16  1  0  0  0  0
 14 15  2  0  0  0  0
 14 20  1  0  0  0  0
 15 26  1  6  0  0  0
 16 29  1  0  0  0  0
 17 36  1  0  0  0  0
 18 21  1  0  0  0  0
 18 29  1  0  0  0  0
 18 31  2  0  0  0  0
 19 26  1  1  0  0  0
 19 29  1  0  0  0  0
 19 32  2  0  0  0  0
 20 30  1  0  0  0  0
 21 26  1  1  0  0  0
 22 23  1  0  0  0  0
 22 25  1  0  0  0  0
 23 25  1  0  0  0  0
 24 26  1  6  0  0  0
 24 30  1  0  0  0  0
 25 27  1  0  0  0  0
 27 35  1  0  0  0  0
 30 35  1  0  0  0  0
 33 35  2  0  0  0  0
 34 35  2  0  0  0  0
  1 37  1  0  0  0  0
  3 38  1  0  0  0  0
  4 39  1  0  0  0  0
  5 40  1  0  0  0  0
  6 41  1  0  0  0  0
  7 42  1  0  0  0  0
  8 43  1  0  0  0  0
  9 44  1  0  0  0  0
 10 45  1  0  0  0  0
 11 46  1  0  0  0  0
 20 47  1  0  0  0  0
 20 48  1  0  0  0  0
 21 49  1  0  0  0  0
 21 50  1  0  0  0  0
 22 51  1  0  0  0  0
 22 52  1  0  0  0  0
 23 53  1  0  0  0  0
 23 54  1  0  0  0  0
 24 55  1  0  0  0  0
 24 56  1  0  0  0  0
 27 57  1  0  0  0  0
 27 58  1  0  0  0  0
M  END
> <scaffold>
tetrahydroisoquinoline-5spiro-isoquinoline

> <compound>
PET-UNK-94036022-4

> <compound_smiles>
C#CC1(CC1)CS(=O)(=O)N2Cc3ccc(cc3[C@]4(C2)CC(=O)N(C4=O)c5cncc6c5cccc6)Cl

> <enantiomer_smiles>
C#CC1(CC1)CS(=O)(=O)[N@@]2Cc3ccc(cc3[C@]4(C2)CC(=O)N(C4=O)c5cncc6c5cccc6)Cl

> <clash_score>
0

> <docking_score>
3.4028234663852886e+38

> <overlap_score>
1.0

> <MMFF_internal_energy>
94.28297928956488

> <docked_smiles>
C#CC1(CC1)CS(=O)(=O)[N@@]2Cc3ccc(cc3[C@]4(C2)CC(=O)N(C4=O)c5cncc6c5cccc6)Cl

$$$$
VLA-UNK-61877630-7_1
  -OEChem-01042202313D

 58 63  0     1  0  0  0  0  0999 V2000
    6.5923    2.6671   28.4297 C   0  0  0  0  0  0  0  0  0  0  0  0
    3.3444    2.6278   20.4409 C   0  0  0  0  0  0  0  0  0  0  0  0
    3.8974    1.9290   21.5048 C   0  0  0  0  0  0  0  0  0  0  0  0
    3.7877    2.4205   19.1658 C   0  0  0  0  0  0  0  0  0  0  0  0
    4.8986    1.0232   21.2985 C   0  0  0  0  0  0  0  0  0  0  0  0
   11.0005   -1.4332   22.0435 C   0  0  0  0  0  0  0  0  0  0  0  0
   12.9147   -0.6032   23.2559 C   0  0  0  0  0  0  0  0  0  0  0  0
    5.3288    1.2339   17.6062 C   0  0  0  0  0  0  0  0  0  0  0  0
    6.8449   -0.2893   18.3747 C   0  0  0  0  0  0  0  0  0  0  0  0
    4.8238    1.4906   18.9051 C   0  0  0  0  0  0  0  0  0  0  0  0
    5.3995    0.7732   19.9944 C   0  0  0  0  0  0  0  0  0  0  0  0
   10.1421   -0.7766   22.9242 C   0  0  0  0  0  0  0  0  0  0  0  0
   10.7056   -0.0626   23.9890 C   0  0  0  0  0  0  0  0  0  0  0  0
    6.4452   -0.1472   19.6975 C   0  0  0  0  0  0  0  0  0  0  0  0
   12.0781    0.0316   24.1532 C   0  0  0  0  0  0  0  0  0  0  0  0
   12.3697   -1.3298   22.2224 C   0  0  0  0  0  0  0  0  0  0  0  0
    8.2504    0.0168   21.4265 C   0  0  0  0  0  0  0  0  0  0  0  0
    9.9496    0.5589   24.9527 C   0  0  0  0  0  0  0  0  0  0  0  0
    5.7973    0.2896   28.6969 C   0  0  0  0  0  0  0  0  0  0  0  0
    5.0771    0.8712   27.5163 C   0  0  0  0  0  0  0  0  0  0  0  0
    8.0155   -2.1541   22.4325 C   0  0  0  0  0  0  0  0  0  0  0  0
    6.9880   -1.9367   21.3575 C   0  0  0  0  0  0  0  0  0  0  0  0
    7.8737   -0.1194   23.8825 C   0  0  0  0  0  0  0  0  0  0  0  0
    6.4702    1.3517   27.8566 C   0  0  0  0  0  0  0  0  0  0  0  0
    8.6253   -0.7606   22.6923 C   0  0  2  0  0  0  0  0  0  0  0  0
    7.6087    0.9304   26.9547 C   0  0  0  0  0  0  0  0  0  0  0  0
    6.6907    3.7269   28.8916 N   0  0  0  0  0  0  0  0  0  0  0  0
    6.3072    0.3768   17.3417 N   0  0  0  0  0  0  0  0  0  0  0  0
    7.2305   -0.6898   20.7785 N   0  0  0  0  0  0  0  0  0  0  0  0
    8.6625    1.0133   24.4989 N   0  0  3  0  0  0  0  0  0  0  0  0
    8.8314    1.0394   21.0790 O   0  0  0  0  0  0  0  0  0  0  0  0
    6.4558    2.2241   24.9991 O   0  0  0  0  0  0  0  0  0  0  0  0
    8.6119    3.1278   25.9583 O   0  0  0  0  0  0  0  0  0  0  0  0
   12.6026    0.7306   25.1659 F   0  0  0  0  0  0  0  0  0  0  0  0
    7.7725    2.0180   25.5623 S   0  0  0  0  0  0  0  0  0  0  0  0
   13.4285   -2.1430   21.1092 Cl  0  0  0  0  0  0  0  0  0  0  0  0
    2.5443    3.3508   20.6368 H   0  0  0  0  0  0  0  0  0  0  0  0
    3.5189    2.1137   22.5166 H   0  0  0  0  0  0  0  0  0  0  0  0
    3.3421    2.9744   18.3363 H   0  0  0  0  0  0  0  0  0  0  0  0
    5.3131    0.4893   22.1569 H   0  0  0  0  0  0  0  0  0  0  0  0
   10.6052   -2.0177   21.2242 H   0  0  0  0  0  0  0  0  0  0  0  0
   13.9923   -0.5162   23.3779 H   0  0  0  0  0  0  0  0  0  0  0  0
    4.9151    1.7511   16.7471 H   0  0  0  0  0  0  0  0  0  0  0  0
    7.6455   -0.9765   18.1038 H   0  0  0  0  0  0  0  0  0  0  0  0
    9.7865   -0.1181   25.8311 H   0  0  0  0  0  0  0  0  0  0  0  0
   10.4805    1.4577   25.3593 H   0  0  0  0  0  0  0  0  0  0  0  0
    5.4357    0.5520   29.6847 H   0  0  0  0  0  0  0  0  0  0  0  0
    6.1481   -0.7329   28.6182 H   0  0  0  0  0  0  0  0  0  0  0  0
    4.9447    0.2376   26.6469 H   0  0  0  0  0  0  0  0  0  0  0  0
    4.2330    1.5219   27.7145 H   0  0  0  0  0  0  0  0  0  0  0  0
    7.5167   -2.5457   23.3335 H   0  0  0  0  0  0  0  0  0  0  0  0
    8.7671   -2.9025   22.1432 H   0  0  0  0  0  0  0  0  0  0  0  0
    7.0597   -2.7250   20.5715 H   0  0  0  0  0  0  0  0  0  0  0  0
    5.9533   -1.9960   21.7717 H   0  0  0  0  0  0  0  0  0  0  0  0
    6.8880    0.2638   23.5638 H   0  0  0  0  0  0  0  0  0  0  0  0
    7.6670   -0.8657   24.6730 H   0  0  0  0  0  0  0  0  0  0  0  0
    7.4436   -0.0759   26.5599 H   0  0  0  0  0  0  0  0  0  0  0  0
    8.5609    0.9486   27.4918 H   0  0  0  0  0  0  0  0  0  0  0  0
  1 24  1  0  0  0  0
  1 27  3  0  0  0  0
  2  3  2  0  0  0  0
  2  4  1  0  0  0  0
  3  5  1  0  0  0  0
  4 10  2  0  0  0  0
  5 11  2  0  0  0  0
  6 12  2  0  0  0  0
  6 16  1  0  0  0  0
  7 15  1  0  0  0  0
  7 16  2  0  0  0  0
  8 10  1  0  0  0  0
  8 28  2  0  0  0  0
  9 14  2  0  0  0  0
  9 28  1  0  0  0  0
 10 11  1  0  0  0  0
 11 14  1  0  0  0  0
 12 13  1  0  0  0  0
 12 25  1  1  0  0  0
 13 15  2  0  0  0  0
 13 18  1  0  0  0  0
 14 29  1  0  0  0  0
 15 34  1  0  0  0  0
 16 36  1  0  0  0  0
 17 25  1  6  0  0  0
 17 29  1  0  0  0  0
 17 31  2  0  0  0  0
 18 30  1  0  0  0  0
 19 20  1  0  0  0  0
 19 24  1  0  0  0  0
 20 24  1  0  0  0  0
 21 22  1  0  0  0  0
 21 25  1  6  0  0  0
 22 29  1  0  0  0  0
 23 25  1  1  0  0  0
 23 30  1  0  0  0  0
 24 26  1  0  0  0  0
 26 35  1  0  0  0  0
 30 35  1  0  0  0  0
 32 35  2  0  0  0  0
 33 35  2  0  0  0  0
  2 37  1  0  0  0  0
  3 38  1  0  0  0  0
  4 39  1  0  0  0  0
  5 40  1  0  0  0  0
  6 41  1  0  0  0  0
  7 42  1  0  0  0  0
  8 43  1  0  0  0  0
  9 44  1  0  0  0  0
 18 45  1  0  0  0  0
 18 46  1  0  0  0  0
 19 47  1  0  0  0  0
 19 48  1  0  0  0  0
 20 49  1  0  0  0  0
 20 50  1  0  0  0  0
 21 51  1  0  0  0  0
 21 52  1  0  0  0  0
 22 53  1  0  0  0  0
 22 54  1  0  0  0  0
 23 55  1  0  0  0  0
 23 56  1  0  0  0  0
 26 57  1  0  0  0  0
 26 58  1  0  0  0  0
M  END
> <scaffold>
tetrahydroisoquinoline-5spiro-isoquinoline

> <compound>
VLA-UNK-61877630-7

> <compound_smiles>
c1ccc2c(c1)cncc2N3CC[C@]4(C3=O)CN(Cc5c4cc(cc5F)Cl)S(=O)(=O)CC6(CC6)C#N

> <enantiomer_smiles>
c1ccc2c(c1)cncc2N3CC[C@]4(C3=O)C[N@](Cc5c4cc(cc5F)Cl)S(=O)(=O)CC6(CC6)C#N

> <clash_score>
0

> <docking_score>
3.4028234663852886e+38

> <overlap_score>
0.9798571467399597

> <MMFF_internal_energy>
101.07584986698

> <docked_smiles>
c1ccc2c(c1)cncc2N3CC[C@]4(C3=O)C[N@](Cc5c4cc(cc5F)Cl)S(=O)(=O)CC6(CC6)C#N

$$$$
MAT-POS-be048f2c-7_1
  -OEChem-01042202313D

 60 66  0     1  0  0  0  0  0999 V2000
    3.3444    2.6278   20.4409 C   0  0  0  0  0  0  0  0  0  0  0  0
    3.8974    1.9290   21.5048 C   0  0  0  0  0  0  0  0  0  0  0  0
    3.7877    2.4205   19.1658 C   0  0  0  0  0  0  0  0  0  0  0  0
    4.8986    1.0232   21.2985 C   0  0  0  0  0  0  0  0  0  0  0  0
   12.0781    0.0316   24.1532 C   0  0  0  0  0  0  0  0  0  0  0  0
   12.9147   -0.6032   23.2559 C   0  0  0  0  0  0  0  0  0  0  0  0
    5.8511    1.7871   25.3800 C   0  0  0  0  0  0  0  0  0  0  0  0
   11.0005   -1.4332   22.0435 C   0  0  0  0  0  0  0  0  0  0  0  0
    4.6593    2.5270   25.2621 C   0  0  0  0  0  0  0  0  0  0  0  0
    5.3288    1.2339   17.6062 C   0  0  0  0  0  0  0  0  0  0  0  0
    6.8449   -0.2893   18.3747 C   0  0  0  0  0  0  0  0  0  0  0  0
    4.8238    1.4906   18.9051 C   0  0  0  0  0  0  0  0  0  0  0  0
    5.3995    0.7732   19.9944 C   0  0  0  0  0  0  0  0  0  0  0  0
   10.7056   -0.0626   23.9890 C   0  0  0  0  0  0  0  0  0  0  0  0
   10.1421   -0.7766   22.9242 C   0  0  0  0  0  0  0  0  0  0  0  0
    6.4452   -0.1472   19.6975 C   0  0  0  0  0  0  0  0  0  0  0  0
   12.3697   -1.3298   22.2224 C   0  0  0  0  0  0  0  0  0  0  0  0
    6.8064    2.5787   24.7906 C   0  0  0  0  0  0  0  0  0  0  0  0
    8.2504    0.0168   21.4265 C   0  0  0  0  0  0  0  0  0  0  0  0
    8.2406    2.3096   24.6256 C   0  0  0  0  0  0  0  0  0  0  0  0
    9.9496    0.5589   24.9527 C   0  0  0  0  0  0  0  0  0  0  0  0
    6.0055    5.7344   22.7895 C   0  0  0  0  0  0  0  0  0  0  0  0
    7.0077    4.7954   22.1946 C   0  0  0  0  0  0  0  0  0  0  0  0
    8.0155   -2.1541   22.4325 C   0  0  0  0  0  0  0  0  0  0  0  0
    6.9880   -1.9367   21.3575 C   0  0  0  0  0  0  0  0  0  0  0  0
    7.8737   -0.1194   23.8825 C   0  0  0  0  0  0  0  0  0  0  0  0
    6.7948    4.8133   23.6901 C   0  0  0  0  0  0  0  0  0  0  0  0
    8.6253   -0.7606   22.6923 C   0  0  3  0  0  0  0  0  0  0  0  0
    6.3072    0.3768   17.3417 N   0  0  0  0  0  0  0  0  0  0  0  0
    4.8385    3.6987   24.6464 N   0  0  0  0  0  0  0  0  0  0  0  0
    6.1541    3.7010   24.3722 N   0  0  0  0  0  0  0  0  0  0  0  0
    7.2305   -0.6898   20.7785 N   0  0  0  0  0  0  0  0  0  0  0  0
    8.6625    1.0133   24.4989 N   0  0  0  0  0  0  0  0  0  0  0  0
    8.8293    1.0423   21.0795 O   0  0  0  0  0  0  0  0  0  0  0  0
    8.9805    3.2920   24.6207 O   0  0  0  0  0  0  0  0  0  0  0  0
   13.4297   -2.1471   21.1135 Cl  0  0  0  0  0  0  0  0  0  0  0  0
    2.5443    3.3508   20.6368 H   0  0  0  0  0  0  0  0  0  0  0  0
    3.5189    2.1137   22.5166 H   0  0  0  0  0  0  0  0  0  0  0  0
    3.3421    2.9744   18.3363 H   0  0  0  0  0  0  0  0  0  0  0  0
    5.3131    0.4893   22.1569 H   0  0  0  0  0  0  0  0  0  0  0  0
   12.5054    0.5873   24.9795 H   0  0  0  0  0  0  0  0  0  0  0  0
   13.9928   -0.5292   23.3862 H   0  0  0  0  0  0  0  0  0  0  0  0
    5.9923    0.8153   25.8305 H   0  0  0  0  0  0  0  0  0  0  0  0
   10.6151   -2.0340   21.2349 H   0  0  0  0  0  0  0  0  0  0  0  0
    3.6677    2.2610   25.5992 H   0  0  0  0  0  0  0  0  0  0  0  0
    4.9151    1.7511   16.7471 H   0  0  0  0  0  0  0  0  0  0  0  0
    7.6455   -0.9765   18.1038 H   0  0  0  0  0  0  0  0  0  0  0  0
    9.7853   -0.0929   25.8506 H   0  0  0  0  0  0  0  0  0  0  0  0
   10.4596    1.4724   25.3577 H   0  0  0  0  0  0  0  0  0  0  0  0
    6.2519    6.7891   22.8095 H   0  0  0  0  0  0  0  0  0  0  0  0
    4.9562    5.5227   22.6250 H   0  0  0  0  0  0  0  0  0  0  0  0
    6.6328    3.9502   21.6301 H   0  0  0  0  0  0  0  0  0  0  0  0
    7.9303    5.2154   21.8130 H   0  0  0  0  0  0  0  0  0  0  0  0
    7.5132   -2.5697   23.3189 H   0  0  0  0  0  0  0  0  0  0  0  0
    8.7733   -2.8987   22.1393 H   0  0  0  0  0  0  0  0  0  0  0  0
    7.0532   -2.7254   20.5703 H   0  0  0  0  0  0  0  0  0  0  0  0
    5.9526   -1.9949   21.7726 H   0  0  0  0  0  0  0  0  0  0  0  0
    6.9275    0.3345   23.5577 H   0  0  0  0  0  0  0  0  0  0  0  0
    7.6195   -0.8486   24.6558 H   0  0  0  0  0  0  0  0  0  0  0  0
    7.5759    5.2673   24.2897 H   0  0  0  0  0  0  0  0  0  0  0  0
  1  2  2  0  0  0  0
  1  3  1  0  0  0  0
  2  4  1  0  0  0  0
  3 12  2  0  0  0  0
  4 13  2  0  0  0  0
  5  6  2  0  0  0  0
  5 14  1  0  0  0  0
  6 17  1  0  0  0  0
  7  9  1  0  0  0  0
  7 18  2  0  0  0  0
  8 15  1  0  0  0  0
  8 17  2  0  0  0  0
  9 30  2  0  0  0  0
 10 12  1  0  0  0  0
 10 29  2  0  0  0  0
 11 16  2  0  0  0  0
 11 29  1  0  0  0  0
 12 13  1  0  0  0  0
 13 16  1  0  0  0  0
 14 15  2  0  0  0  0
 14 21  1  0  0  0  0
 15 28  1  0  0  0  0
 16 32  1  0  0  0  0
 17 36  1  0  0  0  0
 18 20  1  0  0  0  0
 18 31  1  0  0  0  0
 19 28  1  0  0  0  0
 19 32  1  0  0  0  0
 19 34  2  0  0  0  0
 20 33  1  0  0  0  0
 20 35  2  0  0  0  0
 21 33  1  0  0  0  0
 22 23  1  0  0  0  0
 22 27  1  0  0  0  0
 23 27  1  0  0  0  0
 24 25  1  0  0  0  0
 24 28  1  0  0  0  0
 25 32  1  0  0  0  0
 26 28  1  0  0  0  0
 26 33  1  0  0  0  0
 27 31  1  0  0  0  0
 30 31  1  0  0  0  0
  1 37  1  0  0  0  0
  2 38  1  0  0  0  0
  3 39  1  0  0  0  0
  4 40  1  0  0  0  0
  5 41  1  0  0  0  0
  6 42  1  0  0  0  0
  7 43  1  0  0  0  0
  8 44  1  0  0  0  0
  9 45  1  0  0  0  0
 10 46  1  0  0  0  0
 11 47  1  0  0  0  0
 21 48  1  0  0  0  0
 21 49  1  0  0  0  0
 22 50  1  0  0  0  0
 22 51  1  0  0  0  0
 23 52  1  0  0  0  0
 23 53  1  0  0  0  0
 24 54  1  0  0  0  0
 24 55  1  0  0  0  0
 25 56  1  0  0  0  0
 25 57  1  0  0  0  0
 26 58  1  0  0  0  0
 26 59  1  0  0  0  0
 27 60  1  0  0  0  0
M  END
> <scaffold>
tetrahydroisoquinoline-5spiro-isoquinoline

> <compound>
MAT-POS-be048f2c-7

> <compound_smiles>
c1ccc2c(c1)cncc2N3CCC4(C3=O)CN(Cc5c4cc(cc5)Cl)C(=O)c6ccnn6C7CC7

> <enantiomer_smiles>
c1ccc2c(c1)cncc2N3CC[C@]4(C3=O)CN(Cc5c4cc(cc5)Cl)C(=O)c6ccnn6C7CC7

> <clash_score>
0

> <docking_score>
3.4028234663852886e+38

> <overlap_score>
0.9704632759094238

> <MMFF_internal_energy>
132.9169283797708

> <docked_smiles>
c1ccc2c(c1)cncc2N3CC[C@]4(C3=O)CN(Cc5c4cc(cc5)Cl)C(=O)c6ccnn6C7CC7

$$$$
EDJ-MED-b6c6ee2b-4_1
  -OEChem-01042202313D

 58 63  0     1  0  0  0  0  0999 V2000
    6.5923    2.6670   28.4298 C   0  0  0  0  0  0  0  0  0  0  0  0
    3.7877    2.4205   19.1658 C   0  0  0  0  0  0  0  0  0  0  0  0
   12.0781    0.0316   24.1532 C   0  0  0  0  0  0  0  0  0  0  0  0
    3.3444    2.6278   20.4409 C   0  0  0  0  0  0  0  0  0  0  0  0
   12.9147   -0.6032   23.2559 C   0  0  0  0  0  0  0  0  0  0  0  0
    4.8986    1.0232   21.2985 C   0  0  0  0  0  0  0  0  0  0  0  0
   11.0005   -1.4332   22.0435 C   0  0  0  0  0  0  0  0  0  0  0  0
    5.3288    1.2339   17.6062 C   0  0  0  0  0  0  0  0  0  0  0  0
    6.8449   -0.2893   18.3747 C   0  0  0  0  0  0  0  0  0  0  0  0
    4.8238    1.4906   18.9051 C   0  0  0  0  0  0  0  0  0  0  0  0
    5.3995    0.7732   19.9944 C   0  0  0  0  0  0  0  0  0  0  0  0
   10.7056   -0.0626   23.9890 C   0  0  0  0  0  0  0  0  0  0  0  0
   10.1421   -0.7766   22.9242 C   0  0  0  0  0  0  0  0  0  0  0  0
    6.4452   -0.1472   19.6975 C   0  0  0  0  0  0  0  0  0  0  0  0
    3.8974    1.9290   21.5048 C   0  0  0  0  0  0  0  0  0  0  0  0
   12.3697   -1.3298   22.2224 C   0  0  0  0  0  0  0  0  0  0  0  0
    8.2504    0.0168   21.4265 C   0  0  0  0  0  0  0  0  0  0  0  0
    9.9496    0.5589   24.9527 C   0  0  0  0  0  0  0  0  0  0  0  0
    5.7974    0.2895   28.6968 C   0  0  0  0  0  0  0  0  0  0  0  0
    5.0772    0.8711   27.5163 C   0  0  0  0  0  0  0  0  0  0  0  0
    8.0155   -2.1541   22.4325 C   0  0  0  0  0  0  0  0  0  0  0  0
    6.9880   -1.9367   21.3575 C   0  0  0  0  0  0  0  0  0  0  0  0
    7.8737   -0.1194   23.8825 C   0  0  0  0  0  0  0  0  0  0  0  0
    6.4702    1.3516   27.8565 C   0  0  0  0  0  0  0  0  0  0  0  0
    8.6253   -0.7606   22.6923 C   0  0  3  0  0  0  0  0  0  0  0  0
    7.6088    0.9304   26.9546 C   0  0  0  0  0  0  0  0  0  0  0  0
    6.6907    3.7268   28.8917 N   0  0  0  0  0  0  0  0  0  0  0  0
    6.3072    0.3768   17.3417 N   0  0  0  0  0  0  0  0  0  0  0  0
    7.2305   -0.6898   20.7785 N   0  0  0  0  0  0  0  0  0  0  0  0
    8.6625    1.0133   24.4989 N   0  0  3  0  0  0  0  0  0  0  0  0
    8.8314    1.0394   21.0790 O   0  0  0  0  0  0  0  0  0  0  0  0
    6.4559    2.2241   24.9990 O   0  0  0  0  0  0  0  0  0  0  0  0
    8.6119    3.1278   25.9583 O   0  0  0  0  0  0  0  0  0  0  0  0
    7.7725    2.0180   25.5623 S   0  0  0  0  0  0  0  0  0  0  0  0
    3.3016    2.2179   23.1046 Cl  0  0  0  0  0  0  0  0  0  0  0  0
   13.4285   -2.1410   21.1076 Cl  0  0  0  0  0  0  0  0  0  0  0  0
    3.3428    2.9749   18.3362 H   0  0  0  0  0  0  0  0  0  0  0  0
   12.5038    0.5986   24.9731 H   0  0  0  0  0  0  0  0  0  0  0  0
    2.5426    3.3541   20.6217 H   0  0  0  0  0  0  0  0  0  0  0  0
   13.9925   -0.5165   23.3773 H   0  0  0  0  0  0  0  0  0  0  0  0
    5.3233    0.4799   22.1471 H   0  0  0  0  0  0  0  0  0  0  0  0
   10.6052   -2.0169   21.2237 H   0  0  0  0  0  0  0  0  0  0  0  0
    4.9142    1.7509   16.7472 H   0  0  0  0  0  0  0  0  0  0  0  0
    7.6458   -0.9763   18.1041 H   0  0  0  0  0  0  0  0  0  0  0  0
    9.7866   -0.1187   25.8304 H   0  0  0  0  0  0  0  0  0  0  0  0
   10.4816    1.4567   25.3600 H   0  0  0  0  0  0  0  0  0  0  0  0
    5.4358    0.5518   29.6847 H   0  0  0  0  0  0  0  0  0  0  0  0
    6.1481   -0.7331   28.6181 H   0  0  0  0  0  0  0  0  0  0  0  0
    4.9448    0.2375   26.6469 H   0  0  0  0  0  0  0  0  0  0  0  0
    4.2331    1.5218   27.7145 H   0  0  0  0  0  0  0  0  0  0  0  0
    7.5167   -2.5459   23.3332 H   0  0  0  0  0  0  0  0  0  0  0  0
    8.7666   -2.9029   22.1426 H   0  0  0  0  0  0  0  0  0  0  0  0
    7.0601   -2.7250   20.5715 H   0  0  0  0  0  0  0  0  0  0  0  0
    5.9530   -1.9963   21.7709 H   0  0  0  0  0  0  0  0  0  0  0  0
    6.8882    0.2643   23.5640 H   0  0  0  0  0  0  0  0  0  0  0  0
    7.6667   -0.8657   24.6729 H   0  0  0  0  0  0  0  0  0  0  0  0
    7.4436   -0.0759   26.5599 H   0  0  0  0  0  0  0  0  0  0  0  0
    8.5609    0.9485   27.4918 H   0  0  0  0  0  0  0  0  0  0  0  0
  1 24  1  0  0  0  0
  1 27  3  0  0  0  0
  2  4  2  0  0  0  0
  2 10  1  0  0  0  0
  3  5  2  0  0  0  0
  3 12  1  0  0  0  0
  4 15  1  0  0  0  0
  5 16  1  0  0  0  0
  6 11  1  0  0  0  0
  6 15  2  0  0  0  0
  7 13  1  0  0  0  0
  7 16  2  0  0  0  0
  8 10  2  0  0  0  0
  8 28  1  0  0  0  0
  9 14  1  0  0  0  0
  9 28  2  0  0  0  0
 10 11  1  0  0  0  0
 11 14  2  0  0  0  0
 12 13  2  0  0  0  0
 12 18  1  0  0  0  0
 13 25  1  0  0  0  0
 14 29  1  0  0  0  0
 15 35  1  0  0  0  0
 16 36  1  0  0  0  0
 17 25  1  0  0  0  0
 17 29  1  0  0  0  0
 17 31  2  0  0  0  0
 18 30  1  0  0  0  0
 19 20  1  0  0  0  0
 19 24  1  0  0  0  0
 20 24  1  0  0  0  0
 21 22  1  0  0  0  0
 21 25  1  0  0  0  0
 22 29  1  0  0  0  0
 23 25  1  0  0  0  0
 23 30  1  0  0  0  0
 24 26  1  0  0  0  0
 26 34  1  0  0  0  0
 30 34  1  0  0  0  0
 32 34  2  0  0  0  0
 33 34  2  0  0  0  0
  2 37  1  0  0  0  0
  3 38  1  0  0  0  0
  4 39  1  0  0  0  0
  5 40  1  0  0  0  0
  6 41  1  0  0  0  0
  7 42  1  0  0  0  0
  8 43  1  0  0  0  0
  9 44  1  0  0  0  0
 18 45  1  0  0  0  0
 18 46  1  0  0  0  0
 19 47  1  0  0  0  0
 19 48  1  0  0  0  0
 20 49  1  0  0  0  0
 20 50  1  0  0  0  0
 21 51  1  0  0  0  0
 21 52  1  0  0  0  0
 22 53  1  0  0  0  0
 22 54  1  0  0  0  0
 23 55  1  0  0  0  0
 23 56  1  0  0  0  0
 26 57  1  0  0  0  0
 26 58  1  0  0  0  0
M  END
> <scaffold>
tetrahydroisoquinoline-5spiro-isoquinoline

> <compound>
EDJ-MED-b6c6ee2b-4

> <compound_smiles>
c1cc2cncc(c2cc1Cl)N3CCC4(C3=O)CN(Cc5c4cc(cc5)Cl)S(=O)(=O)CC6(CC6)C#N

> <enantiomer_smiles>
c1cc2cncc(c2cc1Cl)N3CC[C@]4(C3=O)C[N@](Cc5c4cc(cc5)Cl)S(=O)(=O)CC6(CC6)C#N

> <clash_score>
0

> <docking_score>
3.4028234663852886e+38

> <overlap_score>
0.9749660491943359

> <MMFF_internal_energy>
110.03441078795919

> <docked_smiles>
c1cc2cncc(c2cc1Cl)N3CC[C@]4(C3=O)C[N@](Cc5c4cc(cc5)Cl)S(=O)(=O)CC6(CC6)C#N

$$$$
JOH-MSK-b735e33c-1_2
  -OEChem-01042202313D

 58 63  0     1  0  0  0  0  0999 V2000
    3.3444    2.6278   20.4409 C   0  0  0  0  0  0  0  0  0  0  0  0
    3.8974    1.9290   21.5048 C   0  0  0  0  0  0  0  0  0  0  0  0
    3.7877    2.4205   19.1658 C   0  0  0  0  0  0  0  0  0  0  0  0
    4.8986    1.0232   21.2985 C   0  0  0  0  0  0  0  0  0  0  0  0
   11.0005   -1.4332   22.0435 C   0  0  0  0  0  0  0  0  0  0  0  0
   12.0781    0.0316   24.1532 C   0  0  0  0  0  0  0  0  0  0  0  0
    5.3288    1.2339   17.6062 C   0  0  0  0  0  0  0  0  0  0  0  0
    6.8449   -0.2893   18.3747 C   0  0  0  0  0  0  0  0  0  0  0  0
    4.8238    1.4906   18.9051 C   0  0  0  0  0  0  0  0  0  0  0  0
    5.3995    0.7732   19.9944 C   0  0  0  0  0  0  0  0  0  0  0  0
   10.1421   -0.7766   22.9242 C   0  0  0  0  0  0  0  0  0  0  0  0
    6.4452   -0.1472   19.6975 C   0  0  0  0  0  0  0  0  0  0  0  0
   10.7056   -0.0626   23.9890 C   0  0  0  0  0  0  0  0  0  0  0  0
   12.3697   -1.3298   22.2224 C   0  0  0  0  0  0  0  0  0  0  0  0
   12.9147   -0.6032   23.2559 C   0  0  0  0  0  0  0  0  0  0  0  0
   10.5191   -6.3994   20.9811 C   0  0  0  0  0  0  0  0  0  0  0  0
    8.2504    0.0168   21.4265 C   0  0  0  0  0  0  0  0  0  0  0  0
    6.9880   -1.9367   21.3575 C   0  0  0  0  0  0  0  0  0  0  0  0
   10.7318   -6.2007   22.4673 C   0  0  0  0  0  0  0  0  0  0  0  0
    9.6203   -5.4297   23.1610 C   0  0  0  0  0  0  0  0  0  0  0  0
    7.8737   -0.1194   23.8825 C   0  0  0  0  0  0  0  0  0  0  0  0
    8.8714   -4.4974   20.9877 C   0  0  0  0  0  0  0  0  0  0  0  0
    8.6625    1.0133   24.4989 C   0  0  0  0  0  0  0  0  0  0  0  0
    9.3259   -4.1395   22.3988 C   0  0  1  0  0  0  0  0  0  0  0  0
    8.6253   -0.7606   22.6923 C   0  0  2  0  0  0  0  0  0  0  0  0
    8.2670   -3.3056   23.1149 C   0  0  0  0  0  0  0  0  0  0  0  0
    6.3072    0.3768   17.3417 N   0  0  0  0  0  0  0  0  0  0  0  0
    9.7225   -5.4784   20.3392 N   0  0  0  0  0  0  0  0  0  0  0  0
    7.2305   -0.6898   20.7785 N   0  0  0  0  0  0  0  0  0  0  0  0
    8.0155   -2.1541   22.4325 N   0  0  0  0  0  0  0  0  0  0  0  0
   11.1049   -7.3007   20.3784 O   0  0  0  0  0  0  0  0  0  0  0  0
    8.8030    1.0413   21.0842 O   0  0  0  0  0  0  0  0  0  0  0  0
    6.1158   -2.7517   21.1386 O   0  0  0  0  0  0  0  0  0  0  0  0
    9.9496    0.5589   24.9527 O   0  0  0  0  0  0  0  0  0  0  0  0
   13.3796   -2.1727   21.0739 Cl  0  0  0  0  0  0  0  0  0  0  0  0
   14.6219   -0.4420   23.4818 Cl  0  0  0  0  0  0  0  0  0  0  0  0
    2.5443    3.3508   20.6368 H   0  0  0  0  0  0  0  0  0  0  0  0
    3.5189    2.1137   22.5166 H   0  0  0  0  0  0  0  0  0  0  0  0
    3.3421    2.9744   18.3363 H   0  0  0  0  0  0  0  0  0  0  0  0
    5.3131    0.4893   22.1569 H   0  0  0  0  0  0  0  0  0  0  0  0
   10.5999   -2.0242   21.2303 H   0  0  0  0  0  0  0  0  0  0  0  0
   12.4849    0.6112   24.9782 H   0  0  0  0  0  0  0  0  0  0  0  0
    4.9151    1.7511   16.7471 H   0  0  0  0  0  0  0  0  0  0  0  0
    7.6455   -0.9765   18.1038 H   0  0  0  0  0  0  0  0  0  0  0  0
   10.8362   -7.1859   22.9355 H   0  0  0  0  0  0  0  0  0  0  0  0
   11.6844   -5.6714   22.5888 H   0  0  0  0  0  0  0  0  0  0  0  0
    8.7169   -6.0507   23.2138 H   0  0  0  0  0  0  0  0  0  0  0  0
    9.9194   -5.2075   24.1921 H   0  0  0  0  0  0  0  0  0  0  0  0
    7.7143   -0.8754   24.6692 H   0  0  0  0  0  0  0  0  0  0  0  0
    6.8761    0.2356   23.5741 H   0  0  0  0  0  0  0  0  0  0  0  0
    7.8619   -4.9250   20.9972 H   0  0  0  0  0  0  0  0  0  0  0  0
    8.8478   -3.6086   20.3481 H   0  0  0  0  0  0  0  0  0  0  0  0
    8.8025    1.8560   23.8153 H   0  0  0  0  0  0  0  0  0  0  0  0
    8.1356    1.3957   25.3777 H   0  0  0  0  0  0  0  0  0  0  0  0
   10.2368   -3.5335   22.3438 H   0  0  0  0  0  0  0  0  0  0  0  0
    7.3396   -3.8921   23.1917 H   0  0  0  0  0  0  0  0  0  0  0  0
    8.6279   -3.0563   24.1237 H   0  0  0  0  0  0  0  0  0  0  0  0
    9.7309   -5.4859   19.3239 H   0  0  0  0  0  0  0  0  0  0  0  0
  1  2  2  0  0  0  0
  1  3  1  0  0  0  0
  2  4  1  0  0  0  0
  3  9  2  0  0  0  0
  4 10  2  0  0  0  0
  5 11  2  0  0  0  0
  5 14  1  0  0  0  0
  6 13  2  0  0  0  0
  6 15  1  0  0  0  0
  7  9  1  0  0  0  0
  7 27  2  0  0  0  0
  8 12  2  0  0  0  0
  8 27  1  0  0  0  0
  9 10  1  0  0  0  0
 10 12  1  0  0  0  0
 11 13  1  0  0  0  0
 11 25  1  6  0  0  0
 12 29  1  0  0  0  0
 13 34  1  0  0  0  0
 14 15  2  0  0  0  0
 14 35  1  0  0  0  0
 15 36  1  0  0  0  0
 16 19  1  0  0  0  0
 16 28  1  0  0  0  0
 16 31  2  0  0  0  0
 17 25  1  1  0  0  0
 17 29  1  0  0  0  0
 17 32  2  0  0  0  0
 18 29  1  0  0  0  0
 18 30  1  0  0  0  0
 18 33  2  0  0  0  0
 19 20  1  0  0  0  0
 20 24  1  0  0  0  0
 21 23  1  0  0  0  0
 21 25  1  1  0  0  0
 22 24  1  0  0  0  0
 22 28  1  0  0  0  0
 23 34  1  0  0  0  0
 24 26  1  6  0  0  0
 25 30  1  6  0  0  0
 26 30  1  0  0  0  0
  1 37  1  0  0  0  0
  2 38  1  0  0  0  0
  3 39  1  0  0  0  0
  4 40  1  0  0  0  0
  5 41  1  0  0  0  0
  6 42  1  0  0  0  0
  7 43  1  0  0  0  0
  8 44  1  0  0  0  0
 19 45  1  0  0  0  0
 19 46  1  0  0  0  0
 20 47  1  0  0  0  0
 20 48  1  0  0  0  0
 21 49  1  0  0  0  0
 21 50  1  0  0  0  0
 22 51  1  0  0  0  0
 22 52  1  0  0  0  0
 23 53  1  0  0  0  0
 23 54  1  0  0  0  0
 24 55  1  0  0  0  0
 26 56  1  0  0  0  0
 26 57  1  0  0  0  0
 28 58  1  0  0  0  0
M  END
> <scaffold>
chromane-5spiro-isoquinoline

> <compound>
JOH-MSK-b735e33c-1

> <compound_smiles>
c1ccc2c(c1)cncc2N3C(=O)[C@@]4(CCOc5c4cc(c(c5)Cl)Cl)N(C3=O)CC6CCC(=O)NC6

> <enantiomer_smiles>
c1ccc2c(c1)cncc2N3C(=O)[C@@]4(CCOc5c4cc(c(c5)Cl)Cl)N(C3=O)C[C@H]6CCC(=O)NC6

> <clash_score>
10.06557013037625

> <docking_score>
3.4028234663852886e+38

> <overlap_score>
1.0

> <MMFF_internal_energy>
70.05467859048775

> <docked_smiles>
c1ccc2c(c1)cncc2N3C(=O)[C@@]4(CCOc5c4cc(c(c5)Cl)Cl)N(C3=O)C[C@H]6CCC(=O)NC6

$$$$
JOH-MSK-b735e33c-1_1
  -OEChem-01042202313D

 58 63  0     1  0  0  0  0  0999 V2000
    3.3444    2.6278   20.4409 C   0  0  0  0  0  0  0  0  0  0  0  0
    3.8974    1.9290   21.5048 C   0  0  0  0  0  0  0  0  0  0  0  0
    3.7877    2.4205   19.1658 C   0  0  0  0  0  0  0  0  0  0  0  0
    4.8986    1.0232   21.2985 C   0  0  0  0  0  0  0  0  0  0  0  0
   11.0005   -1.4332   22.0435 C   0  0  0  0  0  0  0  0  0  0  0  0
   12.0781    0.0316   24.1532 C   0  0  0  0  0  0  0  0  0  0  0  0
    5.3288    1.2339   17.6062 C   0  0  0  0  0  0  0  0  0  0  0  0
    6.8449   -0.2893   18.3747 C   0  0  0  0  0  0  0  0  0  0  0  0
    4.8238    1.4906   18.9051 C   0  0  0  0  0  0  0  0  0  0  0  0
    5.3995    0.7732   19.9944 C   0  0  0  0  0  0  0  0  0  0  0  0
   10.1421   -0.7766   22.9242 C   0  0  0  0  0  0  0  0  0  0  0  0
    6.4452   -0.1472   19.6975 C   0  0  0  0  0  0  0  0  0  0  0  0
   10.7056   -0.0626   23.9890 C   0  0  0  0  0  0  0  0  0  0  0  0
   12.3697   -1.3298   22.2224 C   0  0  0  0  0  0  0  0  0  0  0  0
   12.9147   -0.6032   23.2559 C   0  0  0  0  0  0  0  0  0  0  0  0
   10.5850   -6.4163   21.0753 C   0  0  0  0  0  0  0  0  0  0  0  0
    8.2504    0.0168   21.4265 C   0  0  0  0  0  0  0  0  0  0  0  0
    6.9880   -1.9367   21.3575 C   0  0  0  0  0  0  0  0  0  0  0  0
    9.9774   -5.2812   20.2762 C   0  0  0  0  0  0  0  0  0  0  0  0
    8.8695   -4.5251   20.9931 C   0  0  0  0  0  0  0  0  0  0  0  0
    7.8737   -0.1194   23.8825 C   0  0  0  0  0  0  0  0  0  0  0  0
    9.6283   -5.4170   23.1740 C   0  0  0  0  0  0  0  0  0  0  0  0
    8.6625    1.0133   24.4989 C   0  0  0  0  0  0  0  0  0  0  0  0
    9.3254   -4.1391   22.3992 C   0  0  2  0  0  0  0  0  0  0  0  0
    8.6253   -0.7606   22.6923 C   0  0  2  0  0  0  0  0  0  0  0  0
    8.2670   -3.3056   23.1149 C   0  0  0  0  0  0  0  0  0  0  0  0
    6.3072    0.3768   17.3417 N   0  0  0  0  0  0  0  0  0  0  0  0
   10.4853   -6.3347   22.4462 N   0  0  0  0  0  0  0  0  0  0  0  0
    7.2305   -0.6898   20.7785 N   0  0  0  0  0  0  0  0  0  0  0  0
    8.0155   -2.1541   22.4325 N   0  0  0  0  0  0  0  0  0  0  0  0
   11.2059   -7.3185   20.5105 O   0  0  0  0  0  0  0  0  0  0  0  0
    8.8030    1.0413   21.0842 O   0  0  0  0  0  0  0  0  0  0  0  0
    6.1158   -2.7517   21.1386 O   0  0  0  0  0  0  0  0  0  0  0  0
    9.9496    0.5589   24.9527 O   0  0  0  0  0  0  0  0  0  0  0  0
   13.3796   -2.1727   21.0739 Cl  0  0  0  0  0  0  0  0  0  0  0  0
   14.6219   -0.4420   23.4818 Cl  0  0  0  0  0  0  0  0  0  0  0  0
    2.5443    3.3508   20.6368 H   0  0  0  0  0  0  0  0  0  0  0  0
    3.5189    2.1137   22.5166 H   0  0  0  0  0  0  0  0  0  0  0  0
    3.3421    2.9744   18.3363 H   0  0  0  0  0  0  0  0  0  0  0  0
    5.3131    0.4893   22.1569 H   0  0  0  0  0  0  0  0  0  0  0  0
   10.5999   -2.0242   21.2303 H   0  0  0  0  0  0  0  0  0  0  0  0
   12.4849    0.6112   24.9782 H   0  0  0  0  0  0  0  0  0  0  0  0
    4.9151    1.7511   16.7471 H   0  0  0  0  0  0  0  0  0  0  0  0
    7.6455   -0.9765   18.1038 H   0  0  0  0  0  0  0  0  0  0  0  0
   10.7934   -4.5924   20.0261 H   0  0  0  0  0  0  0  0  0  0  0  0
    9.5882   -5.6908   19.3374 H   0  0  0  0  0  0  0  0  0  0  0  0
    8.6053   -3.6318   20.4152 H   0  0  0  0  0  0  0  0  0  0  0  0
    7.9700   -5.1518   21.0468 H   0  0  0  0  0  0  0  0  0  0  0  0
    7.7143   -0.8754   24.6692 H   0  0  0  0  0  0  0  0  0  0  0  0
    6.8761    0.2356   23.5741 H   0  0  0  0  0  0  0  0  0  0  0  0
   10.1233   -5.1898   24.1242 H   0  0  0  0  0  0  0  0  0  0  0  0
    8.7079   -5.9670   23.4024 H   0  0  0  0  0  0  0  0  0  0  0  0
    8.8025    1.8560   23.8153 H   0  0  0  0  0  0  0  0  0  0  0  0
    8.1356    1.3957   25.3777 H   0  0  0  0  0  0  0  0  0  0  0  0
   10.2343   -3.5282   22.3346 H   0  0  0  0  0  0  0  0  0  0  0  0
    7.3396   -3.8921   23.1917 H   0  0  0  0  0  0  0  0  0  0  0  0
    8.6279   -3.0563   24.1237 H   0  0  0  0  0  0  0  0  0  0  0  0
   11.0590   -6.9694   22.9933 H   0  0  0  0  0  0  0  0  0  0  0  0
  1  2  2  0  0  0  0
  1  3  1  0  0  0  0
  2  4  1  0  0  0  0
  3  9  2  0  0  0  0
  4 10  2  0  0  0  0
  5 11  2  0  0  0  0
  5 14  1  0  0  0  0
  6 13  2  0  0  0  0
  6 15  1  0  0  0  0
  7  9  1  0  0  0  0
  7 27  2  0  0  0  0
  8 12  2  0  0  0  0
  8 27  1  0  0  0  0
  9 10  1  0  0  0  0
 10 12  1  0  0  0  0
 11 13  1  0  0  0  0
 11 25  1  6  0  0  0
 12 29  1  0  0  0  0
 13 34  1  0  0  0  0
 14 15  2  0  0  0  0
 14 35  1  0  0  0  0
 15 36  1  0  0  0  0
 16 19  1  0  0  0  0
 16 28  1  0  0  0  0
 16 31  2  0  0  0  0
 17 25  1  1  0  0  0
 17 29  1  0  0  0  0
 17 32  2  0  0  0  0
 18 29  1  0  0  0  0
 18 30  1  0  0  0  0
 18 33  2  0  0  0  0
 19 20  1  0  0  0  0
 20 24  1  0  0  0  0
 21 23  1  0  0  0  0
 21 25  1  1  0  0  0
 22 24  1  0  0  0  0
 22 28  1  0  0  0  0
 23 34  1  0  0  0  0
 24 26  1  1  0  0  0
 25 30  1  6  0  0  0
 26 30  1  0  0  0  0
  1 37  1  0  0  0  0
  2 38  1  0  0  0  0
  3 39  1  0  0  0  0
  4 40  1  0  0  0  0
  5 41  1  0  0  0  0
  6 42  1  0  0  0  0
  7 43  1  0  0  0  0
  8 44  1  0  0  0  0
 19 45  1  0  0  0  0
 19 46  1  0  0  0  0
 20 47  1  0  0  0  0
 20 48  1  0  0  0  0
 21 49  1  0  0  0  0
 21 50  1  0  0  0  0
 22 51  1  0  0  0  0
 22 52  1  0  0  0  0
 23 53  1  0  0  0  0
 23 54  1  0  0  0  0
 24 55  1  0  0  0  0
 26 56  1  0  0  0  0
 26 57  1  0  0  0  0
 28 58  1  0  0  0  0
M  END
> <scaffold>
chromane-5spiro-isoquinoline

> <compound>
JOH-MSK-b735e33c-1

> <compound_smiles>
c1ccc2c(c1)cncc2N3C(=O)[C@@]4(CCOc5c4cc(c(c5)Cl)Cl)N(C3=O)CC6CCC(=O)NC6

> <enantiomer_smiles>
c1ccc2c(c1)cncc2N3C(=O)[C@@]4(CCOc5c4cc(c(c5)Cl)Cl)N(C3=O)C[C@@H]6CCC(=O)NC6

> <clash_score>
8.772872919458587

> <docking_score>
3.4028234663852886e+38

> <overlap_score>
1.0

> <MMFF_internal_energy>
70.57598279389418

> <docked_smiles>
c1ccc2c(c1)cncc2N3C(=O)[C@@]4(CCOc5c4cc(c(c5)Cl)Cl)N(C3=O)C[C@@H]6CCC(=O)NC6

$$$$
MAT-POS-c2d406ed-2_1
  -OEChem-01042202313D

 59 64  0     1  0  0  0  0  0999 V2000
    6.6029    2.6038   28.4528 C   0  0  0  0  0  0  0  0  0  0  0  0
    3.3444    2.6278   20.4409 C   0  0  0  0  0  0  0  0  0  0  0  0
    3.8974    1.9290   21.5048 C   0  0  0  0  0  0  0  0  0  0  0  0
    3.7877    2.4205   19.1658 C   0  0  0  0  0  0  0  0  0  0  0  0
    4.8986    1.0232   21.2985 C   0  0  0  0  0  0  0  0  0  0  0  0
   12.0781    0.0316   24.1532 C   0  0  0  0  0  0  0  0  0  0  0  0
   12.9147   -0.6032   23.2559 C   0  0  0  0  0  0  0  0  0  0  0  0
   11.0005   -1.4332   22.0435 C   0  0  0  0  0  0  0  0  0  0  0  0
    5.3288    1.2339   17.6062 C   0  0  0  0  0  0  0  0  0  0  0  0
    6.8449   -0.2893   18.3747 C   0  0  0  0  0  0  0  0  0  0  0  0
    4.8238    1.4906   18.9051 C   0  0  0  0  0  0  0  0  0  0  0  0
    5.3995    0.7732   19.9944 C   0  0  0  0  0  0  0  0  0  0  0  0
   10.7056   -0.0626   23.9890 C   0  0  0  0  0  0  0  0  0  0  0  0
   10.1421   -0.7766   22.9242 C   0  0  0  0  0  0  0  0  0  0  0  0
    6.4452   -0.1472   19.6975 C   0  0  0  0  0  0  0  0  0  0  0  0
   12.3697   -1.3298   22.2224 C   0  0  0  0  0  0  0  0  0  0  0  0
    8.2504    0.0168   21.4265 C   0  0  0  0  0  0  0  0  0  0  0  0
    6.9880   -1.9367   21.3575 C   0  0  0  0  0  0  0  0  0  0  0  0
    9.9496    0.5589   24.9527 C   0  0  0  0  0  0  0  0  0  0  0  0
    5.8248    0.2167   28.6820 C   0  0  0  0  0  0  0  0  0  0  0  0
    5.0943    0.8145   27.5159 C   0  0  0  0  0  0  0  0  0  0  0  0
    7.8737   -0.1194   23.8825 C   0  0  0  0  0  0  0  0  0  0  0  0
    6.4861    1.2980   27.8570 C   0  0  0  0  0  0  0  0  0  0  0  0
    8.6253   -0.7606   22.6923 C   0  0  3  0  0  0  0  0  0  0  0  0
    8.2605   -3.3008   23.1249 C   0  0  0  0  0  0  0  0  0  0  0  0
    7.6222    0.9003   26.9415 C   0  0  0  0  0  0  0  0  0  0  0  0
    6.6970    3.6558   28.9330 N   0  0  0  0  0  0  0  0  0  0  0  0
    6.3072    0.3768   17.3417 N   0  0  0  0  0  0  0  0  0  0  0  0
    7.2305   -0.6898   20.7785 N   0  0  0  0  0  0  0  0  0  0  0  0
    8.0155   -2.1541   22.4325 N   0  0  0  0  0  0  0  0  0  0  0  0
    8.6625    1.0133   24.4989 N   0  0  3  0  0  0  0  0  0  0  0  0
    8.8045    1.0418   21.0871 O   0  0  0  0  0  0  0  0  0  0  0  0
    6.1139   -2.7504   21.1411 O   0  0  0  0  0  0  0  0  0  0  0  0
    6.4474    2.2390   25.0297 O   0  0  0  0  0  0  0  0  0  0  0  0
    8.6251    3.1093   25.9709 O   0  0  0  0  0  0  0  0  0  0  0  0
    7.7711    2.0134   25.5679 S   0  0  0  0  0  0  0  0  0  0  0  0
   13.4279   -2.1414   21.1075 Cl  0  0  0  0  0  0  0  0  0  0  0  0
    2.5443    3.3508   20.6368 H   0  0  0  0  0  0  0  0  0  0  0  0
    3.5189    2.1137   22.5166 H   0  0  0  0  0  0  0  0  0  0  0  0
    3.3421    2.9744   18.3363 H   0  0  0  0  0  0  0  0  0  0  0  0
    5.3131    0.4893   22.1569 H   0  0  0  0  0  0  0  0  0  0  0  0
   12.5037    0.6006   24.9720 H   0  0  0  0  0  0  0  0  0  0  0  0
   13.9925   -0.5155   23.3770 H   0  0  0  0  0  0  0  0  0  0  0  0
   10.6064   -2.0209   21.2257 H   0  0  0  0  0  0  0  0  0  0  0  0
    4.9151    1.7511   16.7471 H   0  0  0  0  0  0  0  0  0  0  0  0
    7.6455   -0.9765   18.1038 H   0  0  0  0  0  0  0  0  0  0  0  0
    9.7894   -0.1169   25.8341 H   0  0  0  0  0  0  0  0  0  0  0  0
   10.4831    1.4577   25.3596 H   0  0  0  0  0  0  0  0  0  0  0  0
    5.4670    0.4592   29.6763 H   0  0  0  0  0  0  0  0  0  0  0  0
    6.1817   -0.8019   28.5831 H   0  0  0  0  0  0  0  0  0  0  0  0
    4.9610    0.1955   26.6361 H   0  0  0  0  0  0  0  0  0  0  0  0
    4.2471    1.4560   27.7303 H   0  0  0  0  0  0  0  0  0  0  0  0
    6.8963    0.2740   23.5515 H   0  0  0  0  0  0  0  0  0  0  0  0
    7.6768   -0.8555   24.6818 H   0  0  0  0  0  0  0  0  0  0  0  0
    9.0283   -3.8853   22.5969 H   0  0  0  0  0  0  0  0  0  0  0  0
    8.6206   -3.0489   24.1333 H   0  0  0  0  0  0  0  0  0  0  0  0
    7.3374   -3.8940   23.2028 H   0  0  0  0  0  0  0  0  0  0  0  0
    7.4613   -0.1000   26.5298 H   0  0  0  0  0  0  0  0  0  0  0  0
    8.5772    0.9151   27.4736 H   0  0  0  0  0  0  0  0  0  0  0  0
  1 23  1  0  0  0  0
  1 27  3  0  0  0  0
  2  3  2  0  0  0  0
  2  4  1  0  0  0  0
  3  5  1  0  0  0  0
  4 11  2  0  0  0  0
  5 12  2  0  0  0  0
  6  7  2  0  0  0  0
  6 13  1  0  0  0  0
  7 16  1  0  0  0  0
  8 14  1  0  0  0  0
  8 16  2  0  0  0  0
  9 11  1  0  0  0  0
  9 28  2  0  0  0  0
 10 15  2  0  0  0  0
 10 28  1  0  0  0  0
 11 12  1  0  0  0  0
 12 15  1  0  0  0  0
 13 14  2  0  0  0  0
 13 19  1  0  0  0  0
 14 24  1  0  0  0  0
 15 29  1  0  0  0  0
 16 37  1  0  0  0  0
 17 24  1  0  0  0  0
 17 29  1  0  0  0  0
 17 32  2  0  0  0  0
 18 29  1  0  0  0  0
 18 30  1  0  0  0  0
 18 33  2  0  0  0  0
 19 31  1  0  0  0  0
 20 21  1  0  0  0  0
 20 23  1  0  0  0  0
 21 23  1  0  0  0  0
 22 24  1  0  0  0  0
 22 31  1  0  0  0  0
 23 26  1  0  0  0  0
 24 30  1  0  0  0  0
 25 30  1  0  0  0  0
 26 36  1  0  0  0  0
 31 36  1  0  0  0  0
 34 36  2  0  0  0  0
 35 36  2  0  0  0  0
  2 38  1  0  0  0  0
  3 39  1  0  0  0  0
  4 40  1  0  0  0  0
  5 41  1  0  0  0  0
  6 42  1  0  0  0  0
  7 43  1  0  0  0  0
  8 44  1  0  0  0  0
  9 45  1  0  0  0  0
 10 46  1  0  0  0  0
 19 47  1  0  0  0  0
 19 48  1  0  0  0  0
 20 49  1  0  0  0  0
 20 50  1  0  0  0  0
 21 51  1  0  0  0  0
 21 52  1  0  0  0  0
 22 53  1  0  0  0  0
 22 54  1  0  0  0  0
 25 55  1  0  0  0  0
 25 56  1  0  0  0  0
 25 57  1  0  0  0  0
 26 58  1  0  0  0  0
 26 59  1  0  0  0  0
M  END
> <scaffold>
tetrahydroisoquinoline-5spiro-isoquinoline

> <compound>
MAT-POS-c2d406ed-2

> <compound_smiles>
CN1C(=O)N(C(=O)C12CN(Cc3c2cc(cc3)Cl)S(=O)(=O)CC4(CC4)C#N)c5cncc6c5cccc6

> <enantiomer_smiles>
CN1C(=O)N(C(=O)[C@@]12C[N@](Cc3c2cc(cc3)Cl)S(=O)(=O)CC4(CC4)C#N)c5cncc6c5cccc6

> <clash_score>
0

> <docking_score>
3.4028234663852886e+38

> <overlap_score>
1.0

> <MMFF_internal_energy>
99.24109254214207

> <docked_smiles>
CN1C(=O)N(C(=O)[C@@]12C[N@](Cc3c2cc(cc3)Cl)S(=O)(=O)CC4(CC4)C#N)c5cncc6c5cccc6

$$$$
EDG-MED-b6bce001-2_1
  -OEChem-01042202313D

 59 64  0     1  0  0  0  0  0999 V2000
    6.6053    2.6081   28.4459 C   0  0  0  0  0  0  0  0  0  0  0  0
    3.3444    2.6278   20.4409 C   0  0  0  0  0  0  0  0  0  0  0  0
    3.8974    1.9290   21.5048 C   0  0  0  0  0  0  0  0  0  0  0  0
    3.7877    2.4205   19.1658 C   0  0  0  0  0  0  0  0  0  0  0  0
    4.8986    1.0232   21.2985 C   0  0  0  0  0  0  0  0  0  0  0  0
   12.0781    0.0316   24.1532 C   0  0  0  0  0  0  0  0  0  0  0  0
   12.9147   -0.6032   23.2559 C   0  0  0  0  0  0  0  0  0  0  0  0
   11.0005   -1.4332   22.0435 C   0  0  0  0  0  0  0  0  0  0  0  0
    5.3288    1.2339   17.6062 C   0  0  0  0  0  0  0  0  0  0  0  0
    6.8449   -0.2893   18.3747 C   0  0  0  0  0  0  0  0  0  0  0  0
    4.8238    1.4906   18.9051 C   0  0  0  0  0  0  0  0  0  0  0  0
    5.3995    0.7732   19.9944 C   0  0  0  0  0  0  0  0  0  0  0  0
   10.7056   -0.0626   23.9890 C   0  0  0  0  0  0  0  0  0  0  0  0
   10.1421   -0.7766   22.9242 C   0  0  0  0  0  0  0  0  0  0  0  0
    6.4452   -0.1472   19.6975 C   0  0  0  0  0  0  0  0  0  0  0  0
   12.3697   -1.3298   22.2224 C   0  0  0  0  0  0  0  0  0  0  0  0
    8.2504    0.0168   21.4265 C   0  0  0  0  0  0  0  0  0  0  0  0
    6.9880   -1.9367   21.3575 C   0  0  0  0  0  0  0  0  0  0  0  0
    9.9496    0.5589   24.9527 C   0  0  0  0  0  0  0  0  0  0  0  0
    5.8322    0.2197   28.6773 C   0  0  0  0  0  0  0  0  0  0  0  0
    5.0992    0.8152   27.5117 C   0  0  0  0  0  0  0  0  0  0  0  0
    7.8737   -0.1194   23.8825 C   0  0  0  0  0  0  0  0  0  0  0  0
    6.4904    1.3017   27.8509 C   0  0  0  0  0  0  0  0  0  0  0  0
    8.6253   -0.7606   22.6923 C   0  0  3  0  0  0  0  0  0  0  0  0
    6.0036   -2.8991   21.1510 C   0  0  0  0  0  0  0  0  0  0  0  0
    7.6263    0.9057   26.9344 C   0  0  0  0  0  0  0  0  0  0  0  0
    6.6979    3.6606   28.9253 N   0  0  0  0  0  0  0  0  0  0  0  0
    6.3072    0.3768   17.3417 N   0  0  0  0  0  0  0  0  0  0  0  0
    7.2305   -0.6898   20.7785 N   0  0  0  0  0  0  0  0  0  0  0  0
    8.6625    1.0133   24.4989 N   0  0  3  0  0  0  0  0  0  0  0  0
    8.0155   -2.1541   22.4325 N   0  3  0  0  0  0  0  0  0  0  0  0
    8.7780    1.0552   21.0226 O   0  0  0  0  0  0  0  0  0  0  0  0
    6.4466    2.2408   25.0232 O   0  0  0  0  0  0  0  0  0  0  0  0
    8.6232    3.1166   25.9618 O   0  0  0  0  0  0  0  0  0  0  0  0
    7.7715    2.0184   25.5599 S   0  0  0  0  0  0  0  0  0  0  0  0
   13.4277   -2.1437   21.1090 Cl  0  0  0  0  0  0  0  0  0  0  0  0
    2.5442    3.3510   20.6363 H   0  0  0  0  0  0  0  0  0  0  0  0
    3.5187    2.1134   22.5165 H   0  0  0  0  0  0  0  0  0  0  0  0
    3.3428    2.9753   18.3365 H   0  0  0  0  0  0  0  0  0  0  0  0
    5.3156    0.4866   22.1542 H   0  0  0  0  0  0  0  0  0  0  0  0
   12.5032    0.5993   24.9736 H   0  0  0  0  0  0  0  0  0  0  0  0
   13.9923   -0.5176   23.3782 H   0  0  0  0  0  0  0  0  0  0  0  0
   10.6036   -2.0183   21.2242 H   0  0  0  0  0  0  0  0  0  0  0  0
    4.9147    1.7513   16.7472 H   0  0  0  0  0  0  0  0  0  0  0  0
    7.6465   -0.9763   18.1075 H   0  0  0  0  0  0  0  0  0  0  0  0
    9.7877   -0.1184   25.8310 H   0  0  0  0  0  0  0  0  0  0  0  0
   10.4823    1.4567   25.3594 H   0  0  0  0  0  0  0  0  0  0  0  0
    5.4751    0.4620   29.6719 H   0  0  0  0  0  0  0  0  0  0  0  0
    6.1910   -0.7983   28.5786 H   0  0  0  0  0  0  0  0  0  0  0  0
    4.9662    0.1955   26.6324 H   0  0  0  0  0  0  0  0  0  0  0  0
    4.2510    1.4553   27.7267 H   0  0  0  0  0  0  0  0  0  0  0  0
    6.8946    0.2653   23.5471 H   0  0  0  0  0  0  0  0  0  0  0  0
    7.6666   -0.8726   24.6640 H   0  0  0  0  0  0  0  0  0  0  0  0
    6.3046   -3.6171   20.3721 H   0  0  0  0  0  0  0  0  0  0  0  0
    5.0704   -2.4178   20.8177 H   0  0  0  0  0  0  0  0  0  0  0  0
    5.7666   -3.4737   22.0603 H   0  0  0  0  0  0  0  0  0  0  0  0
    7.4670   -0.0950   26.5235 H   0  0  0  0  0  0  0  0  0  0  0  0
    8.5819    0.9228   27.4655 H   0  0  0  0  0  0  0  0  0  0  0  0
    8.1470   -2.9931   22.7950 H   0  0  0  0  0  0  0  0  0  0  0  0
  1 23  1  0  0  0  0
  1 27  3  0  0  0  0
  2  3  2  0  0  0  0
  2  4  1  0  0  0  0
  3  5  1  0  0  0  0
  4 11  2  0  0  0  0
  5 12  2  0  0  0  0
  6  7  2  0  0  0  0
  6 13  1  0  0  0  0
  7 16  1  0  0  0  0
  8 14  1  0  0  0  0
  8 16  2  0  0  0  0
  9 11  1  0  0  0  0
  9 28  2  0  0  0  0
 10 15  2  0  0  0  0
 10 28  1  0  0  0  0
 11 12  1  0  0  0  0
 12 15  1  0  0  0  0
 13 14  2  0  0  0  0
 13 19  1  0  0  0  0
 14 24  1  0  0  0  0
 15 29  1  0  0  0  0
 16 36  1  0  0  0  0
 17 24  1  0  0  0  0
 17 29  1  0  0  0  0
 17 32  2  0  0  0  0
 18 25  1  0  0  0  0
 18 29  1  0  0  0  0
 18 31  2  0  0  0  0
 19 30  1  0  0  0  0
 20 21  1  0  0  0  0
 20 23  1  0  0  0  0
 21 23  1  0  0  0  0
 22 24  1  0  0  0  0
 22 30  1  0  0  0  0
 23 26  1  0  0  0  0
 24 31  1  0  0  0  0
 26 35  1  0  0  0  0
 30 35  1  0  0  0  0
 33 35  2  0  0  0  0
 34 35  2  0  0  0  0
  2 37  1  0  0  0  0
  3 38  1  0  0  0  0
  4 39  1  0  0  0  0
  5 40  1  0  0  0  0
  6 41  1  0  0  0  0
  7 42  1  0  0  0  0
  8 43  1  0  0  0  0
  9 44  1  0  0  0  0
 10 45  1  0  0  0  0
 19 46  1  0  0  0  0
 19 47  1  0  0  0  0
 20 48  1  0  0  0  0
 20 49  1  0  0  0  0
 21 50  1  0  0  0  0
 21 51  1  0  0  0  0
 22 52  1  0  0  0  0
 22 53  1  0  0  0  0
 25 54  1  0  0  0  0
 25 55  1  0  0  0  0
 25 56  1  0  0  0  0
 26 57  1  0  0  0  0
 26 58  1  0  0  0  0
 31 59  1  0  0  0  0
M  CHG  1  31   1
M  END
> <scaffold>
tetrahydroisoquinoline-5spiro-isoquinoline

> <compound>
EDG-MED-b6bce001-2

> <compound_smiles>
CC1=NC2(CN(Cc3c2cc(cc3)Cl)S(=O)(=O)CC4(CC4)C#N)C(=O)N1c5cncc6c5cccc6

> <enantiomer_smiles>
CC1=N[C@]2(C[N@](Cc3c2cc(cc3)Cl)S(=O)(=O)CC4(CC4)C#N)C(=O)N1c5cncc6c5cccc6

> <clash_score>
0

> <docking_score>
3.4028234663852886e+38

> <overlap_score>
1.0

> <MMFF_internal_energy>
191.5783228236174

> <docked_smiles>
CC1=[NH+][C@]2(C[N@](Cc3c2cc(cc3)Cl)S(=O)(=O)CC4(CC4)C#N)C(=O)N1c5cncc6c5cccc6

$$$$
EDJ-MED-98c0a822-2_1
  -OEChem-01042202313D

 59 64  0     1  0  0  0  0  0999 V2000
    3.3444    2.6278   20.4409 C   0  0  0  0  0  0  0  0  0  0  0  0
    3.8974    1.9290   21.5048 C   0  0  0  0  0  0  0  0  0  0  0  0
    3.7877    2.4205   19.1658 C   0  0  0  0  0  0  0  0  0  0  0  0
    4.8986    1.0232   21.2985 C   0  0  0  0  0  0  0  0  0  0  0  0
   12.0781    0.0316   24.1532 C   0  0  0  0  0  0  0  0  0  0  0  0
   12.9147   -0.6032   23.2559 C   0  0  0  0  0  0  0  0  0  0  0  0
   11.0005   -1.4332   22.0435 C   0  0  0  0  0  0  0  0  0  0  0  0
    5.3288    1.2339   17.6062 C   0  0  0  0  0  0  0  0  0  0  0  0
    6.8449   -0.2893   18.3747 C   0  0  0  0  0  0  0  0  0  0  0  0
    4.8238    1.4906   18.9051 C   0  0  0  0  0  0  0  0  0  0  0  0
    5.3995    0.7732   19.9944 C   0  0  0  0  0  0  0  0  0  0  0  0
   10.1421   -0.7766   22.9242 C   0  0  0  0  0  0  0  0  0  0  0  0
    6.4452   -0.1472   19.6975 C   0  0  0  0  0  0  0  0  0  0  0  0
   10.7056   -0.0626   23.9890 C   0  0  0  0  0  0  0  0  0  0  0  0
   12.3697   -1.3298   22.2224 C   0  0  0  0  0  0  0  0  0  0  0  0
    8.2504    0.0168   21.4265 C   0  0  0  0  0  0  0  0  0  0  0  0
    7.1860    1.4132   26.5789 C   0  0  0  0  0  0  0  0  0  0  0  0
    8.0155   -2.1541   22.4325 C   0  0  0  0  0  0  0  0  0  0  0  0
    6.9880   -1.9367   21.3575 C   0  0  0  0  0  0  0  0  0  0  0  0
    7.8737   -0.1194   23.8825 C   0  0  0  0  0  0  0  0  0  0  0  0
    6.5621    2.5498   24.3087 C   0  0  0  0  0  0  0  0  0  0  0  0
    8.2057    3.3984   25.2162 C   0  0  0  0  0  0  0  0  0  0  0  0
    8.6253   -0.7606   22.6923 C   0  0  3  0  0  0  0  0  0  0  0  0
    7.6644    1.9559   25.2065 C   0  0  0  0  0  0  0  0  0  0  0  0
    7.8977    1.0535   28.9340 C   0  0  0  0  0  0  0  0  0  0  0  0
    6.3072    0.3768   17.3417 N   0  0  0  0  0  0  0  0  0  0  0  0
    7.2305   -0.6898   20.7785 N   0  0  0  0  0  0  0  0  0  0  0  0
    8.6625    1.0133   24.4989 N   0  0  3  0  0  0  0  0  0  0  0  0
    8.1347    1.4997   27.5798 N   0  0  0  0  0  0  0  0  0  0  0  0
    8.8309    1.0391   21.0781 O   0  0  0  0  0  0  0  0  0  0  0  0
    6.0511    0.9639   26.6886 O   0  0  0  0  0  0  0  0  0  0  0  0
    9.7375   -0.4354   26.1492 O   0  0  0  0  0  0  0  0  0  0  0  0
   10.7227    1.8062   25.5132 O   0  0  0  0  0  0  0  0  0  0  0  0
    7.2483    3.8182   24.2185 O   0  0  0  0  0  0  0  0  0  0  0  0
    9.9496    0.5589   24.9527 S   0  0  0  0  0  0  0  0  0  0  0  0
   13.4297   -2.1363   21.1051 Cl  0  0  0  0  0  0  0  0  0  0  0  0
    2.5443    3.3508   20.6368 H   0  0  0  0  0  0  0  0  0  0  0  0
    3.5189    2.1137   22.5166 H   0  0  0  0  0  0  0  0  0  0  0  0
    3.3421    2.9744   18.3363 H   0  0  0  0  0  0  0  0  0  0  0  0
    5.3131    0.4893   22.1569 H   0  0  0  0  0  0  0  0  0  0  0  0
   12.5134    0.5935   24.9769 H   0  0  0  0  0  0  0  0  0  0  0  0
   13.9928   -0.5158   23.3774 H   0  0  0  0  0  0  0  0  0  0  0  0
   10.6110   -2.0129   21.2225 H   0  0  0  0  0  0  0  0  0  0  0  0
    4.9151    1.7511   16.7471 H   0  0  0  0  0  0  0  0  0  0  0  0
    7.6455   -0.9765   18.1038 H   0  0  0  0  0  0  0  0  0  0  0  0
    7.5150   -2.5500   23.3299 H   0  0  0  0  0  0  0  0  0  0  0  0
    8.7648   -2.9038   22.1419 H   0  0  0  0  0  0  0  0  0  0  0  0
    7.0595   -2.7253   20.5719 H   0  0  0  0  0  0  0  0  0  0  0  0
    5.9531   -1.9956   21.7710 H   0  0  0  0  0  0  0  0  0  0  0  0
    6.8792    0.2514   23.5690 H   0  0  0  0  0  0  0  0  0  0  0  0
    7.6533   -0.8636   24.6733 H   0  0  0  0  0  0  0  0  0  0  0  0
    6.4431    2.0861   23.3246 H   0  0  0  0  0  0  0  0  0  0  0  0
    5.5766    2.6668   24.7713 H   0  0  0  0  0  0  0  0  0  0  0  0
    8.0728    3.9549   26.1497 H   0  0  0  0  0  0  0  0  0  0  0  0
    9.2343    3.5265   24.8652 H   0  0  0  0  0  0  0  0  0  0  0  0
    7.4881    1.8839   29.5278 H   0  0  0  0  0  0  0  0  0  0  0  0
    7.1798    0.2202   28.9250 H   0  0  0  0  0  0  0  0  0  0  0  0
    8.8451    0.7165   29.3799 H   0  0  0  0  0  0  0  0  0  0  0  0
    9.0420    1.8957   27.3530 H   0  0  0  0  0  0  0  0  0  0  0  0
  1  2  2  0  0  0  0
  1  3  1  0  0  0  0
  2  4  1  0  0  0  0
  3 10  2  0  0  0  0
  4 11  2  0  0  0  0
  5  6  2  0  0  0  0
  5 14  1  0  0  0  0
  6 15  1  0  0  0  0
  7 12  1  0  0  0  0
  7 15  2  0  0  0  0
  8 10  1  0  0  0  0
  8 26  2  0  0  0  0
  9 13  2  0  0  0  0
  9 26  1  0  0  0  0
 10 11  1  0  0  0  0
 11 13  1  0  0  0  0
 12 14  2  0  0  0  0
 12 23  1  0  0  0  0
 13 27  1  0  0  0  0
 14 35  1  0  0  0  0
 15 36  1  0  0  0  0
 16 23  1  0  0  0  0
 16 27  1  0  0  0  0
 16 30  2  0  0  0  0
 17 24  1  0  0  0  0
 17 29  1  0  0  0  0
 17 31  2  0  0  0  0
 18 19  1  0  0  0  0
 18 23  1  0  0  0  0
 19 27  1  0  0  0  0
 20 23  1  0  0  0  0
 20 28  1  0  0  0  0
 21 24  1  0  0  0  0
 21 34  1  0  0  0  0
 22 24  1  0  0  0  0
 22 34  1  0  0  0  0
 24 28  1  0  0  0  0
 25 29  1  0  0  0  0
 28 35  1  0  0  0  0
 32 35  2  0  0  0  0
 33 35  2  0  0  0  0
  1 37  1  0  0  0  0
  2 38  1  0  0  0  0
  3 39  1  0  0  0  0
  4 40  1  0  0  0  0
  5 41  1  0  0  0  0
  6 42  1  0  0  0  0
  7 43  1  0  0  0  0
  8 44  1  0  0  0  0
  9 45  1  0  0  0  0
 18 46  1  0  0  0  0
 18 47  1  0  0  0  0
 19 48  1  0  0  0  0
 19 49  1  0  0  0  0
 20 50  1  0  0  0  0
 20 51  1  0  0  0  0
 21 52  1  0  0  0  0
 21 53  1  0  0  0  0
 22 54  1  0  0  0  0
 22 55  1  0  0  0  0
 25 56  1  0  0  0  0
 25 57  1  0  0  0  0
 25 58  1  0  0  0  0
 29 59  1  0  0  0  0
M  END
> <scaffold>
tetralinlike-5spiro-isoquinoline

> <compound>
EDJ-MED-98c0a822-2

> <compound_smiles>
CNC(=O)C1(COC1)N2CC3(CCN(C3=O)c4cncc5c4cccc5)c6cc(ccc6S2(=O)=O)Cl

> <enantiomer_smiles>
CNC(=O)C1(COC1)[N@@]2C[C@@]3(CCN(C3=O)c4cncc5c4cccc5)c6cc(ccc6S2(=O)=O)Cl

> <clash_score>
0.722786609877843

> <docking_score>
3.4028234663852886e+38

> <overlap_score>
0.9888592958450317

> <MMFF_internal_energy>
241.66610557303002

> <docked_smiles>
CNC(=O)C1(COC1)[N@@]2C[C@@]3(CCN(C3=O)c4cncc5c4cccc5)c6cc(ccc6S2(=O)=O)Cl

$$$$
ALP-POS-ecbed2ba-1_1
  -OEChem-01042202313D

 63 68  0     1  0  0  0  0  0999 V2000
    3.3444    2.6278   20.4409 C   0  0  0  0  0  0  0  0  0  0  0  0
    3.8974    1.9290   21.5048 C   0  0  0  0  0  0  0  0  0  0  0  0
    3.7877    2.4205   19.1658 C   0  0  0  0  0  0  0  0  0  0  0  0
    4.8986    1.0232   21.2985 C   0  0  0  0  0  0  0  0  0  0  0  0
   12.0781    0.0316   24.1532 C   0  0  0  0  0  0  0  0  0  0  0  0
   12.9147   -0.6032   23.2559 C   0  0  0  0  0  0  0  0  0  0  0  0
   11.0005   -1.4332   22.0435 C   0  0  0  0  0  0  0  0  0  0  0  0
    5.3288    1.2339   17.6062 C   0  0  0  0  0  0  0  0  0  0  0  0
    6.8449   -0.2893   18.3747 C   0  0  0  0  0  0  0  0  0  0  0  0
    4.8238    1.4906   18.9051 C   0  0  0  0  0  0  0  0  0  0  0  0
    5.3995    0.7732   19.9944 C   0  0  0  0  0  0  0  0  0  0  0  0
   10.7056   -0.0626   23.9890 C   0  0  0  0  0  0  0  0  0  0  0  0
   10.1421   -0.7766   22.9242 C   0  0  0  0  0  0  0  0  0  0  0  0
    6.4452   -0.1472   19.6975 C   0  0  0  0  0  0  0  0  0  0  0  0
   12.3697   -1.3298   22.2224 C   0  0  0  0  0  0  0  0  0  0  0  0
    8.2504    0.0168   21.4265 C   0  0  0  0  0  0  0  0  0  0  0  0
    9.9496    0.5589   24.9527 C   0  0  0  0  0  0  0  0  0  0  0  0
    8.0155   -2.1541   22.4325 C   0  0  0  0  0  0  0  0  0  0  0  0
    6.9880   -1.9367   21.3575 C   0  0  0  0  0  0  0  0  0  0  0  0
    7.8737   -0.1194   23.8825 C   0  0  0  0  0  0  0  0  0  0  0  0
    7.5292    2.8719   28.6147 C   0  0  0  0  0  0  0  0  0  0  0  0
    7.0207    0.8464   29.4404 C   0  0  0  0  0  0  0  0  0  0  0  0
    8.6253   -0.7606   22.6923 C   0  0  3  0  0  0  0  0  0  0  0  0
    6.8379    1.5828   28.0804 C   0  0  0  0  0  0  0  0  0  0  0  0
    5.3730    1.7895   27.6854 C   0  0  0  0  0  0  0  0  0  0  0  0
    7.6088    0.9304   26.9546 C   0  0  0  0  0  0  0  0  0  0  0  0
    6.3072    0.3768   17.3417 N   0  0  0  0  0  0  0  0  0  0  0  0
    7.2305   -0.6898   20.7785 N   0  0  0  0  0  0  0  0  0  0  0  0
    8.6625    1.0133   24.4989 N   0  0  3  0  0  0  0  0  0  0  0  0
    8.8314    1.0394   21.0790 O   0  0  0  0  0  0  0  0  0  0  0  0
    5.9929    2.9023   30.7969 O   0  0  0  0  0  0  0  0  0  0  0  0
    8.4688    2.3873   31.0583 O   0  0  0  0  0  0  0  0  0  0  0  0
    6.4559    2.2241   24.9990 O   0  0  0  0  0  0  0  0  0  0  0  0
    8.6119    3.1278   25.9583 O   0  0  0  0  0  0  0  0  0  0  0  0
    7.2435    2.3808   30.2879 S   0  0  0  0  0  0  0  0  0  0  0  0
    7.7725    2.0180   25.5623 S   0  0  0  0  0  0  0  0  0  0  0  0
   13.4285   -2.1410   21.1076 Cl  0  0  0  0  0  0  0  0  0  0  0  0
    2.5443    3.3508   20.6368 H   0  0  0  0  0  0  0  0  0  0  0  0
    3.5189    2.1137   22.5166 H   0  0  0  0  0  0  0  0  0  0  0  0
    3.3421    2.9744   18.3363 H   0  0  0  0  0  0  0  0  0  0  0  0
    5.3131    0.4893   22.1569 H   0  0  0  0  0  0  0  0  0  0  0  0
   12.5038    0.5986   24.9731 H   0  0  0  0  0  0  0  0  0  0  0  0
   13.9925   -0.5165   23.3773 H   0  0  0  0  0  0  0  0  0  0  0  0
   10.6052   -2.0169   21.2237 H   0  0  0  0  0  0  0  0  0  0  0  0
    4.9151    1.7511   16.7471 H   0  0  0  0  0  0  0  0  0  0  0  0
    7.6455   -0.9765   18.1038 H   0  0  0  0  0  0  0  0  0  0  0  0
    9.7866   -0.1187   25.8304 H   0  0  0  0  0  0  0  0  0  0  0  0
   10.4816    1.4567   25.3600 H   0  0  0  0  0  0  0  0  0  0  0  0
    7.5167   -2.5459   23.3332 H   0  0  0  0  0  0  0  0  0  0  0  0
    8.7666   -2.9029   22.1426 H   0  0  0  0  0  0  0  0  0  0  0  0
    7.0601   -2.7250   20.5715 H   0  0  0  0  0  0  0  0  0  0  0  0
    5.9530   -1.9963   21.7709 H   0  0  0  0  0  0  0  0  0  0  0  0
    6.8882    0.2643   23.5640 H   0  0  0  0  0  0  0  0  0  0  0  0
    7.6667   -0.8657   24.6729 H   0  0  0  0  0  0  0  0  0  0  0  0
    8.5995    2.9542   28.3969 H   0  0  0  0  0  0  0  0  0  0  0  0
    7.0453    3.8166   28.3499 H   0  0  0  0  0  0  0  0  0  0  0  0
    6.1564    0.2761   29.7934 H   0  0  0  0  0  0  0  0  0  0  0  0
    7.9115    0.2134   29.5142 H   0  0  0  0  0  0  0  0  0  0  0  0
    4.9567    0.8524   27.3233 H   0  0  0  0  0  0  0  0  0  0  0  0
    5.3089    2.5389   26.9000 H   0  0  0  0  0  0  0  0  0  0  0  0
    4.8055    2.1250   28.5502 H   0  0  0  0  0  0  0  0  0  0  0  0
    7.0989    0.0296   26.6018 H   0  0  0  0  0  0  0  0  0  0  0  0
    8.6192    0.6630   27.2756 H   0  0  0  0  0  0  0  0  0  0  0  0
  1  2  2  0  0  0  0
  1  3  1  0  0  0  0
  2  4  1  0  0  0  0
  3 10  2  0  0  0  0
  4 11  2  0  0  0  0
  5  6  2  0  0  0  0
  5 12  1  0  0  0  0
  6 15  1  0  0  0  0
  7 13  1  0  0  0  0
  7 15  2  0  0  0  0
  8 10  1  0  0  0  0
  8 27  2  0  0  0  0
  9 14  2  0  0  0  0
  9 27  1  0  0  0  0
 10 11  1  0  0  0  0
 11 14  1  0  0  0  0
 12 13  2  0  0  0  0
 12 17  1  0  0  0  0
 13 23  1  0  0  0  0
 14 28  1  0  0  0  0
 15 37  1  0  0  0  0
 16 23  1  0  0  0  0
 16 28  1  0  0  0  0
 16 30  2  0  0  0  0
 17 29  1  0  0  0  0
 18 19  1  0  0  0  0
 18 23  1  0  0  0  0
 19 28  1  0  0  0  0
 20 23  1  0  0  0  0
 20 29  1  0  0  0  0
 21 24  1  0  0  0  0
 21 35  1  0  0  0  0
 22 24  1  0  0  0  0
 22 35  1  0  0  0  0
 24 25  1  0  0  0  0
 24 26  1  0  0  0  0
 26 36  1  0  0  0  0
 29 36  1  0  0  0  0
 31 35  2  0  0  0  0
 32 35  2  0  0  0  0
 33 36  2  0  0  0  0
 34 36  2  0  0  0  0
  1 38  1  0  0  0  0
  2 39  1  0  0  0  0
  3 40  1  0  0  0  0
  4 41  1  0  0  0  0
  5 42  1  0  0  0  0
  6 43  1  0  0  0  0
  7 44  1  0  0  0  0
  8 45  1  0  0  0  0
  9 46  1  0  0  0  0
 17 47  1  0  0  0  0
 17 48  1  0  0  0  0
 18 49  1  0  0  0  0
 18 50  1  0  0  0  0
 19 51  1  0  0  0  0
 19 52  1  0  0  0  0
 20 53  1  0  0  0  0
 20 54  1  0  0  0  0
 21 55  1  0  0  0  0
 21 56  1  0  0  0  0
 22 57  1  0  0  0  0
 22 58  1  0  0  0  0
 25 59  1  0  0  0  0
 25 60  1  0  0  0  0
 25 61  1  0  0  0  0
 26 62  1  0  0  0  0
 26 63  1  0  0  0  0
M  END
> <scaffold>
tetrahydroisoquinoline-5spiro-isoquinoline

> <compound>
ALP-POS-ecbed2ba-1

> <compound_smiles>
CC1(CS(=O)(=O)C1)CS(=O)(=O)N2Cc3ccc(cc3C4(C2)CCN(C4=O)c5cncc6c5cccc6)Cl

> <enantiomer_smiles>
CC1(CS(=O)(=O)C1)CS(=O)(=O)[N@]2Cc3ccc(cc3[C@@]4(C2)CCN(C4=O)c5cncc6c5cccc6)Cl

> <clash_score>
0

> <docking_score>
3.4028234663852886e+38

> <overlap_score>
0.9673815965652466

> <MMFF_internal_energy>
97.40769581808627

> <docked_smiles>
CC1(CS(=O)(=O)C1)CS(=O)(=O)[N@]2Cc3ccc(cc3[C@@]4(C2)CCN(C4=O)c5cncc6c5cccc6)Cl

$$$$
MAT-POS-853c0ffa-14_1
  -OEChem-01042202313D

 61 66  0     1  0  0  0  0  0999 V2000
    3.7877    2.4205   19.1658 C   0  0  0  0  0  0  0  0  0  0  0  0
   12.0781    0.0316   24.1532 C   0  0  0  0  0  0  0  0  0  0  0  0
    3.3444    2.6278   20.4409 C   0  0  0  0  0  0  0  0  0  0  0  0
   12.9147   -0.6032   23.2559 C   0  0  0  0  0  0  0  0  0  0  0  0
    4.8986    1.0232   21.2985 C   0  0  0  0  0  0  0  0  0  0  0  0
   11.0005   -1.4332   22.0435 C   0  0  0  0  0  0  0  0  0  0  0  0
    5.3288    1.2339   17.6062 C   0  0  0  0  0  0  0  0  0  0  0  0
    6.8449   -0.2893   18.3747 C   0  0  0  0  0  0  0  0  0  0  0  0
    4.8238    1.4906   18.9051 C   0  0  0  0  0  0  0  0  0  0  0  0
    5.3995    0.7732   19.9944 C   0  0  0  0  0  0  0  0  0  0  0  0
   10.7056   -0.0626   23.9890 C   0  0  0  0  0  0  0  0  0  0  0  0
   10.1421   -0.7766   22.9242 C   0  0  0  0  0  0  0  0  0  0  0  0
    6.4452   -0.1472   19.6975 C   0  0  0  0  0  0  0  0  0  0  0  0
    3.8974    1.9290   21.5048 C   0  0  0  0  0  0  0  0  0  0  0  0
   12.3697   -1.3298   22.2224 C   0  0  0  0  0  0  0  0  0  0  0  0
    8.2504    0.0168   21.4265 C   0  0  0  0  0  0  0  0  0  0  0  0
    9.9496    0.5589   24.9527 C   0  0  0  0  0  0  0  0  0  0  0  0
    6.9477    1.0432   29.4808 C   0  0  0  0  0  0  0  0  0  0  0  0
    7.5627    2.3715   29.1372 C   0  0  0  0  0  0  0  0  0  0  0  0
    8.0155   -2.1541   22.4325 C   0  0  0  0  0  0  0  0  0  0  0  0
    6.9880   -1.9367   21.3575 C   0  0  0  0  0  0  0  0  0  0  0  0
    7.8737   -0.1194   23.8825 C   0  0  0  0  0  0  0  0  0  0  0  0
    8.6253   -0.7606   22.6923 C   0  0  3  0  0  0  0  0  0  0  0  0
    6.8379    1.5828   28.0804 C   0  0  0  0  0  0  0  0  0  0  0  0
    4.5680    1.0542   27.7790 C   0  0  0  0  0  0  0  0  0  0  0  0
    7.6088    0.9304   26.9546 C   0  0  0  0  0  0  0  0  0  0  0  0
    6.3072    0.3768   17.3417 N   0  0  0  0  0  0  0  0  0  0  0  0
    7.2305   -0.6898   20.7785 N   0  0  0  0  0  0  0  0  0  0  0  0
    8.6625    1.0133   24.4989 N   0  0  3  0  0  0  0  0  0  0  0  0
    8.8314    1.0394   21.0790 O   0  0  0  0  0  0  0  0  0  0  0  0
    6.4559    2.2241   24.9990 O   0  0  0  0  0  0  0  0  0  0  0  0
    8.6119    3.1278   25.9583 O   0  0  0  0  0  0  0  0  0  0  0  0
    5.5439    2.0759   27.6956 O   0  0  0  0  0  0  0  0  0  0  0  0
    3.4330    2.1555   22.7513 F   0  0  0  0  0  0  0  0  0  0  0  0
    7.7725    2.0180   25.5623 S   0  0  0  0  0  0  0  0  0  0  0  0
   13.4285   -2.1410   21.1076 Cl  0  0  0  0  0  0  0  0  0  0  0  0
    3.3411    2.9735   18.3363 H   0  0  0  0  0  0  0  0  0  0  0  0
   12.5038    0.5986   24.9731 H   0  0  0  0  0  0  0  0  0  0  0  0
    2.5441    3.3506   20.6360 H   0  0  0  0  0  0  0  0  0  0  0  0
   13.9925   -0.5165   23.3773 H   0  0  0  0  0  0  0  0  0  0  0  0
    5.3117    0.4882   22.1567 H   0  0  0  0  0  0  0  0  0  0  0  0
   10.6052   -2.0169   21.2237 H   0  0  0  0  0  0  0  0  0  0  0  0
    4.9147    1.7515   16.7472 H   0  0  0  0  0  0  0  0  0  0  0  0
    7.6456   -0.9763   18.1039 H   0  0  0  0  0  0  0  0  0  0  0  0
    9.7866   -0.1187   25.8304 H   0  0  0  0  0  0  0  0  0  0  0  0
   10.4816    1.4567   25.3600 H   0  0  0  0  0  0  0  0  0  0  0  0
    7.6181    0.2123   29.6648 H   0  0  0  0  0  0  0  0  0  0  0  0
    6.0602    1.0451   30.1019 H   0  0  0  0  0  0  0  0  0  0  0  0
    7.0870    3.2628   29.5287 H   0  0  0  0  0  0  0  0  0  0  0  0
    8.6436    2.4274   29.0913 H   0  0  0  0  0  0  0  0  0  0  0  0
    7.5167   -2.5459   23.3332 H   0  0  0  0  0  0  0  0  0  0  0  0
    8.7666   -2.9029   22.1426 H   0  0  0  0  0  0  0  0  0  0  0  0
    7.0601   -2.7250   20.5715 H   0  0  0  0  0  0  0  0  0  0  0  0
    5.9530   -1.9963   21.7709 H   0  0  0  0  0  0  0  0  0  0  0  0
    6.8882    0.2643   23.5640 H   0  0  0  0  0  0  0  0  0  0  0  0
    7.6667   -0.8657   24.6729 H   0  0  0  0  0  0  0  0  0  0  0  0
    3.5951    1.4535   27.4821 H   0  0  0  0  0  0  0  0  0  0  0  0
    4.5215    0.6763   28.8035 H   0  0  0  0  0  0  0  0  0  0  0  0
    4.8465    0.2407   27.1050 H   0  0  0  0  0  0  0  0  0  0  0  0
    7.0989    0.0296   26.6018 H   0  0  0  0  0  0  0  0  0  0  0  0
    8.6192    0.6630   27.2756 H   0  0  0  0  0  0  0  0  0  0  0  0
  1  3  2  0  0  0  0
  1  9  1  0  0  0  0
  2  4  2  0  0  0  0
  2 11  1  0  0  0  0
  3 14  1  0  0  0  0
  4 15  1  0  0  0  0
  5 10  1  0  0  0  0
  5 14  2  0  0  0  0
  6 12  1  0  0  0  0
  6 15  2  0  0  0  0
  7  9  2  0  0  0  0
  7 27  1  0  0  0  0
  8 13  1  0  0  0  0
  8 27  2  0  0  0  0
  9 10  1  0  0  0  0
 10 13  2  0  0  0  0
 11 12  2  0  0  0  0
 11 17  1  0  0  0  0
 12 23  1  0  0  0  0
 13 28  1  0  0  0  0
 14 34  1  0  0  0  0
 15 36  1  0  0  0  0
 16 23  1  0  0  0  0
 16 28  1  0  0  0  0
 16 30  2  0  0  0  0
 17 29  1  0  0  0  0
 18 19  1  0  0  0  0
 18 24  1  0  0  0  0
 19 24  1  0  0  0  0
 20 21  1  0  0  0  0
 20 23  1  0  0  0  0
 21 28  1  0  0  0  0
 22 23  1  0  0  0  0
 22 29  1  0  0  0  0
 24 26  1  0  0  0  0
 24 33  1  0  0  0  0
 25 33  1  0  0  0  0
 26 35  1  0  0  0  0
 29 35  1  0  0  0  0
 31 35  2  0  0  0  0
 32 35  2  0  0  0  0
  1 37  1  0  0  0  0
  2 38  1  0  0  0  0
  3 39  1  0  0  0  0
  4 40  1  0  0  0  0
  5 41  1  0  0  0  0
  6 42  1  0  0  0  0
  7 43  1  0  0  0  0
  8 44  1  0  0  0  0
 17 45  1  0  0  0  0
 17 46  1  0  0  0  0
 18 47  1  0  0  0  0
 18 48  1  0  0  0  0
 19 49  1  0  0  0  0
 19 50  1  0  0  0  0
 20 51  1  0  0  0  0
 20 52  1  0  0  0  0
 21 53  1  0  0  0  0
 21 54  1  0  0  0  0
 22 55  1  0  0  0  0
 22 56  1  0  0  0  0
 25 57  1  0  0  0  0
 25 58  1  0  0  0  0
 25 59  1  0  0  0  0
 26 60  1  0  0  0  0
 26 61  1  0  0  0  0
M  END
> <scaffold>
tetrahydroisoquinoline-5spiro-isoquinoline

> <compound>
MAT-POS-853c0ffa-14

> <compound_smiles>
COC1(CC1)CS(=O)(=O)N2Cc3ccc(cc3C4(C2)CCN(C4=O)c5cncc6c5cc(cc6)F)Cl

> <enantiomer_smiles>
COC1(CC1)CS(=O)(=O)[N@]2Cc3ccc(cc3[C@@]4(C2)CCN(C4=O)c5cncc6c5cc(cc6)F)Cl

> <clash_score>
0

> <docking_score>
3.4028234663852886e+38

> <overlap_score>
0.9790424704551697

> <MMFF_internal_energy>
122.86952715905467

> <docked_smiles>
COC1(CC1)CS(=O)(=O)[N@]2Cc3ccc(cc3[C@@]4(C2)CCN(C4=O)c5cncc6c5cc(cc6)F)Cl

$$$$
VLA-UNK-61877630-3_1
  -OEChem-01042202313D

 56 60  0     1  0  0  0  0  0999 V2000
    3.3444    2.6278   20.4409 C   0  0  0  0  0  0  0  0  0  0  0  0
    3.8974    1.9290   21.5048 C   0  0  0  0  0  0  0  0  0  0  0  0
    3.7877    2.4205   19.1658 C   0  0  0  0  0  0  0  0  0  0  0  0
    4.8986    1.0232   21.2985 C   0  0  0  0  0  0  0  0  0  0  0  0
   12.0781    0.0316   24.1532 C   0  0  0  0  0  0  0  0  0  0  0  0
   12.9147   -0.6032   23.2559 C   0  0  0  0  0  0  0  0  0  0  0  0
   11.0005   -1.4332   22.0435 C   0  0  0  0  0  0  0  0  0  0  0  0
    5.3288    1.2339   17.6062 C   0  0  0  0  0  0  0  0  0  0  0  0
    6.8449   -0.2893   18.3747 C   0  0  0  0  0  0  0  0  0  0  0  0
    4.8238    1.4906   18.9051 C   0  0  0  0  0  0  0  0  0  0  0  0
    5.3995    0.7732   19.9944 C   0  0  0  0  0  0  0  0  0  0  0  0
   10.7056   -0.0626   23.9890 C   0  0  0  0  0  0  0  0  0  0  0  0
   10.1421   -0.7766   22.9242 C   0  0  0  0  0  0  0  0  0  0  0  0
    6.4452   -0.1472   19.6975 C   0  0  0  0  0  0  0  0  0  0  0  0
   12.3697   -1.3298   22.2224 C   0  0  0  0  0  0  0  0  0  0  0  0
    9.9496    0.5589   24.9527 C   0  0  0  0  0  0  0  0  0  0  0  0
    8.2504    0.0168   21.4265 C   0  0  0  0  0  0  0  0  0  0  0  0
    8.5113    3.1709   23.5916 C   0  0  0  0  0  0  0  0  0  0  0  0
    8.0155   -2.1541   22.4325 C   0  0  0  0  0  0  0  0  0  0  0  0
    6.9880   -1.9367   21.3575 C   0  0  0  0  0  0  0  0  0  0  0  0
    7.8737   -0.1194   23.8825 C   0  0  1  0  0  0  0  0  0  0  0  0
    8.6253   -0.7606   22.6923 C   0  0  2  0  0  0  0  0  0  0  0  0
    7.4723    4.5642   21.8046 C   0  0  0  0  0  0  0  0  0  0  0  0
    8.1223    2.2485   24.7185 C   0  0  0  0  0  0  0  0  0  0  0  0
    7.4927   -1.1044   25.0083 C   0  0  0  0  0  0  0  0  0  0  0  0
    6.3072    0.3768   17.3417 N   0  0  0  0  0  0  0  0  0  0  0  0
    7.2305   -0.6898   20.7785 N   0  0  0  0  0  0  0  0  0  0  0  0
    8.6625    1.0133   24.4989 N   0  0  0  0  0  0  0  0  0  0  0  0
    7.3945    3.6561   22.9262 N   0  0  0  0  0  0  0  0  0  0  0  0
   10.3327    0.7437   26.1029 O   0  0  0  0  0  0  0  0  0  0  0  0
    8.8213    1.0440   21.0746 O   0  0  0  0  0  0  0  0  0  0  0  0
    9.6758    3.4470   23.3156 O   0  0  0  0  0  0  0  0  0  0  0  0
    6.6716   -2.0439   24.5252 F   0  0  0  0  0  0  0  0  0  0  0  0
    8.5910   -1.6871   25.5023 F   0  0  0  0  0  0  0  0  0  0  0  0
    6.8710   -0.4319   25.9837 F   0  0  0  0  0  0  0  0  0  0  0  0
   13.4289   -2.1347   21.1037 Cl  0  0  0  0  0  0  0  0  0  0  0  0
    2.5443    3.3508   20.6368 H   0  0  0  0  0  0  0  0  0  0  0  0
    3.5189    2.1137   22.5166 H   0  0  0  0  0  0  0  0  0  0  0  0
    3.3421    2.9744   18.3363 H   0  0  0  0  0  0  0  0  0  0  0  0
    5.3131    0.4893   22.1569 H   0  0  0  0  0  0  0  0  0  0  0  0
   12.5191    0.5966   24.9702 H   0  0  0  0  0  0  0  0  0  0  0  0
   13.9920   -0.5098   23.3726 H   0  0  0  0  0  0  0  0  0  0  0  0
   10.6104   -2.0130   21.2192 H   0  0  0  0  0  0  0  0  0  0  0  0
    4.9151    1.7511   16.7471 H   0  0  0  0  0  0  0  0  0  0  0  0
    7.6455   -0.9765   18.1038 H   0  0  0  0  0  0  0  0  0  0  0  0
    7.5144   -2.5392   23.3364 H   0  0  0  0  0  0  0  0  0  0  0  0
    8.7589   -2.9111   22.1428 H   0  0  0  0  0  0  0  0  0  0  0  0
    7.0564   -2.7255   20.5705 H   0  0  0  0  0  0  0  0  0  0  0  0
    5.9526   -1.9959   21.7725 H   0  0  0  0  0  0  0  0  0  0  0  0
    6.9283    0.3252   23.5299 H   0  0  0  0  0  0  0  0  0  0  0  0
    7.4550    5.6016   22.1702 H   0  0  0  0  0  0  0  0  0  0  0  0
    8.4068    4.3857   21.2526 H   0  0  0  0  0  0  0  0  0  0  0  0
    6.6143    4.3965   21.1370 H   0  0  0  0  0  0  0  0  0  0  0  0
    8.4939    2.6482   25.6667 H   0  0  0  0  0  0  0  0  0  0  0  0
    7.0331    2.1589   24.7653 H   0  0  0  0  0  0  0  0  0  0  0  0
    6.4765    3.3582   23.2433 H   0  0  0  0  0  0  0  0  0  0  0  0
  1  2  2  0  0  0  0
  1  3  1  0  0  0  0
  2  4  1  0  0  0  0
  3 10  2  0  0  0  0
  4 11  2  0  0  0  0
  5  6  2  0  0  0  0
  5 12  1  0  0  0  0
  6 15  1  0  0  0  0
  7 13  1  0  0  0  0
  7 15  2  0  0  0  0
  8 10  1  0  0  0  0
  8 26  2  0  0  0  0
  9 14  2  0  0  0  0
  9 26  1  0  0  0  0
 10 11  1  0  0  0  0
 11 14  1  0  0  0  0
 12 13  2  0  0  0  0
 12 16  1  0  0  0  0
 13 22  1  6  0  0  0
 14 27  1  0  0  0  0
 15 36  1  0  0  0  0
 16 28  1  0  0  0  0
 16 30  2  0  0  0  0
 17 22  1  6  0  0  0
 17 27  1  0  0  0  0
 17 31  2  0  0  0  0
 18 24  1  0  0  0  0
 18 29  1  0  0  0  0
 18 32  2  0  0  0  0
 19 20  1  0  0  0  0
 19 22  1  1  0  0  0
 20 27  1  0  0  0  0
 21 22  1  1  0  0  0
 21 25  1  1  0  0  0
 21 28  1  0  0  0  0
 23 29  1  0  0  0  0
 24 28  1  0  0  0  0
 25 33  1  0  0  0  0
 25 34  1  0  0  0  0
 25 35  1  0  0  0  0
  1 37  1  0  0  0  0
  2 38  1  0  0  0  0
  3 39  1  0  0  0  0
  4 40  1  0  0  0  0
  5 41  1  0  0  0  0
  6 42  1  0  0  0  0
  7 43  1  0  0  0  0
  8 44  1  0  0  0  0
  9 45  1  0  0  0  0
 19 46  1  0  0  0  0
 19 47  1  0  0  0  0
 20 48  1  0  0  0  0
 20 49  1  0  0  0  0
 21 50  1  0  0  0  0
 23 51  1  0  0  0  0
 23 52  1  0  0  0  0
 23 53  1  0  0  0  0
 24 54  1  0  0  0  0
 24 55  1  0  0  0  0
 29 56  1  0  0  0  0
M  END
> <scaffold>
tetrahydroisoquinoline-5spiro-isoquinoline

> <compound>
VLA-UNK-61877630-3

> <compound_smiles>
CNC(=O)CN1C([C@@]2(CCN(C2=O)c3cncc4c3cccc4)c5cc(ccc5C1=O)Cl)C(F)(F)F

> <enantiomer_smiles>
CNC(=O)CN1[C@@H]([C@@]2(CCN(C2=O)c3cncc4c3cccc4)c5cc(ccc5C1=O)Cl)C(F)(F)F

> <clash_score>
0

> <docking_score>
3.4028234663852886e+38

> <overlap_score>
1.0

> <MMFF_internal_energy>
209.41564928345974

> <docked_smiles>
CNC(=O)CN1[C@@H]([C@@]2(CCN(C2=O)c3cncc4c3cccc4)c5cc(ccc5C1=O)Cl)C(F)(F)F

$$$$
EDJ-MED-98c0a822-1_1
  -OEChem-01042202313D

 61 66  0     1  0  0  0  0  0999 V2000
    3.3444    2.6278   20.4409 C   0  0  0  0  0  0  0  0  0  0  0  0
    3.8974    1.9290   21.5048 C   0  0  0  0  0  0  0  0  0  0  0  0
    3.7877    2.4205   19.1658 C   0  0  0  0  0  0  0  0  0  0  0  0
    4.8986    1.0232   21.2985 C   0  0  0  0  0  0  0  0  0  0  0  0
   12.0781    0.0316   24.1532 C   0  0  0  0  0  0  0  0  0  0  0  0
   12.9147   -0.6032   23.2559 C   0  0  0  0  0  0  0  0  0  0  0  0
   11.0005   -1.4332   22.0435 C   0  0  0  0  0  0  0  0  0  0  0  0
    5.3288    1.2339   17.6062 C   0  0  0  0  0  0  0  0  0  0  0  0
    6.8449   -0.2893   18.3747 C   0  0  0  0  0  0  0  0  0  0  0  0
    4.8238    1.4906   18.9051 C   0  0  0  0  0  0  0  0  0  0  0  0
    5.3995    0.7732   19.9944 C   0  0  0  0  0  0  0  0  0  0  0  0
   10.1421   -0.7766   22.9242 C   0  0  0  0  0  0  0  0  0  0  0  0
    6.4452   -0.1472   19.6975 C   0  0  0  0  0  0  0  0  0  0  0  0
   10.7056   -0.0626   23.9890 C   0  0  0  0  0  0  0  0  0  0  0  0
   12.3697   -1.3298   22.2224 C   0  0  0  0  0  0  0  0  0  0  0  0
    8.2504    0.0168   21.4265 C   0  0  0  0  0  0  0  0  0  0  0  0
    7.2584    1.3389   26.5423 C   0  0  0  0  0  0  0  0  0  0  0  0
    6.6308    3.7579   24.7466 C   0  0  0  0  0  0  0  0  0  0  0  0
    6.5476    2.3233   24.1943 C   0  0  0  0  0  0  0  0  0  0  0  0
    8.0767    3.4463   25.1732 C   0  0  0  0  0  0  0  0  0  0  0  0
    8.0155   -2.1541   22.4325 C   0  0  0  0  0  0  0  0  0  0  0  0
    6.9880   -1.9367   21.3575 C   0  0  0  0  0  0  0  0  0  0  0  0
    7.8737   -0.1194   23.8825 C   0  0  0  0  0  0  0  0  0  0  0  0
    8.6253   -0.7606   22.6923 C   0  0  3  0  0  0  0  0  0  0  0  0
    7.6903    1.9359   25.1817 C   0  0  0  0  0  0  0  0  0  0  0  0
    7.9200    1.1485   28.9316 C   0  0  0  0  0  0  0  0  0  0  0  0
    6.3072    0.3768   17.3417 N   0  0  0  0  0  0  0  0  0  0  0  0
    7.2305   -0.6898   20.7785 N   0  0  0  0  0  0  0  0  0  0  0  0
    8.6625    1.0133   24.4989 N   0  0  3  0  0  0  0  0  0  0  0  0
    8.1321    1.6092   27.5781 N   0  0  0  0  0  0  0  0  0  0  0  0
    8.7618    1.0890   21.1318 O   0  0  0  0  0  0  0  0  0  0  0  0
    6.2182    0.6952   26.6168 O   0  0  0  0  0  0  0  0  0  0  0  0
    9.7318   -0.4367   26.1443 O   0  0  0  0  0  0  0  0  0  0  0  0
   10.7214    1.8046   25.5143 O   0  0  0  0  0  0  0  0  0  0  0  0
    9.9496    0.5589   24.9527 S   0  0  0  0  0  0  0  0  0  0  0  0
   13.4297   -2.1363   21.1051 Cl  0  0  0  0  0  0  0  0  0  0  0  0
    2.5443    3.3508   20.6368 H   0  0  0  0  0  0  0  0  0  0  0  0
    3.5189    2.1137   22.5166 H   0  0  0  0  0  0  0  0  0  0  0  0
    3.3421    2.9744   18.3363 H   0  0  0  0  0  0  0  0  0  0  0  0
    5.3131    0.4893   22.1569 H   0  0  0  0  0  0  0  0  0  0  0  0
   12.5133    0.5935   24.9769 H   0  0  0  0  0  0  0  0  0  0  0  0
   13.9928   -0.5158   23.3774 H   0  0  0  0  0  0  0  0  0  0  0  0
   10.6110   -2.0129   21.2225 H   0  0  0  0  0  0  0  0  0  0  0  0
    4.9151    1.7511   16.7471 H   0  0  0  0  0  0  0  0  0  0  0  0
    7.6455   -0.9765   18.1038 H   0  0  0  0  0  0  0  0  0  0  0  0
    6.5559    4.5320   23.9756 H   0  0  0  0  0  0  0  0  0  0  0  0
    5.9381    3.9945   25.5572 H   0  0  0  0  0  0  0  0  0  0  0  0
    5.5913    1.8311   24.3987 H   0  0  0  0  0  0  0  0  0  0  0  0
    6.7733    2.2226   23.1308 H   0  0  0  0  0  0  0  0  0  0  0  0
    8.8451    3.7439   24.4569 H   0  0  0  0  0  0  0  0  0  0  0  0
    8.3386    3.8483   26.1572 H   0  0  0  0  0  0  0  0  0  0  0  0
    7.5150   -2.5500   23.3299 H   0  0  0  0  0  0  0  0  0  0  0  0
    8.7649   -2.9038   22.1419 H   0  0  0  0  0  0  0  0  0  0  0  0
    7.0595   -2.7253   20.5719 H   0  0  0  0  0  0  0  0  0  0  0  0
    5.9531   -1.9956   21.7710 H   0  0  0  0  0  0  0  0  0  0  0  0
    6.8792    0.2513   23.5690 H   0  0  0  0  0  0  0  0  0  0  0  0
    7.6533   -0.8636   24.6733 H   0  0  0  0  0  0  0  0  0  0  0  0
    7.3434    1.9010   29.4895 H   0  0  0  0  0  0  0  0  0  0  0  0
    7.3633    0.2000   28.9129 H   0  0  0  0  0  0  0  0  0  0  0  0
    8.8921    0.9936   29.4226 H   0  0  0  0  0  0  0  0  0  0  0  0
    8.9632    2.1579   27.3788 H   0  0  0  0  0  0  0  0  0  0  0  0
  1  2  2  0  0  0  0
  1  3  1  0  0  0  0
  2  4  1  0  0  0  0
  3 10  2  0  0  0  0
  4 11  2  0  0  0  0
  5  6  2  0  0  0  0
  5 14  1  0  0  0  0
  6 15  1  0  0  0  0
  7 12  1  0  0  0  0
  7 15  2  0  0  0  0
  8 10  1  0  0  0  0
  8 27  2  0  0  0  0
  9 13  2  0  0  0  0
  9 27  1  0  0  0  0
 10 11  1  0  0  0  0
 11 13  1  0  0  0  0
 12 14  2  0  0  0  0
 12 24  1  0  0  0  0
 13 28  1  0  0  0  0
 14 35  1  0  0  0  0
 15 36  1  0  0  0  0
 16 24  1  0  0  0  0
 16 28  1  0  0  0  0
 16 31  2  0  0  0  0
 17 25  1  0  0  0  0
 17 30  1  0  0  0  0
 17 32  2  0  0  0  0
 18 19  1  0  0  0  0
 18 20  1  0  0  0  0
 19 25  1  0  0  0  0
 20 25  1  0  0  0  0
 21 22  1  0  0  0  0
 21 24  1  0  0  0  0
 22 28  1  0  0  0  0
 23 24  1  0  0  0  0
 23 29  1  0  0  0  0
 25 29  1  0  0  0  0
 26 30  1  0  0  0  0
 29 35  1  0  0  0  0
 33 35  2  0  0  0  0
 34 35  2  0  0  0  0
  1 37  1  0  0  0  0
  2 38  1  0  0  0  0
  3 39  1  0  0  0  0
  4 40  1  0  0  0  0
  5 41  1  0  0  0  0
  6 42  1  0  0  0  0
  7 43  1  0  0  0  0
  8 44  1  0  0  0  0
  9 45  1  0  0  0  0
 18 46  1  0  0  0  0
 18 47  1  0  0  0  0
 19 48  1  0  0  0  0
 19 49  1  0  0  0  0
 20 50  1  0  0  0  0
 20 51  1  0  0  0  0
 21 52  1  0  0  0  0
 21 53  1  0  0  0  0
 22 54  1  0  0  0  0
 22 55  1  0  0  0  0
 23 56  1  0  0  0  0
 23 57  1  0  0  0  0
 26 58  1  0  0  0  0
 26 59  1  0  0  0  0
 26 60  1  0  0  0  0
 30 61  1  0  0  0  0
M  END
> <scaffold>
tetralinlike-5spiro-isoquinoline

> <compound>
EDJ-MED-98c0a822-1

> <compound_smiles>
CNC(=O)C1(CCC1)N2CC3(CCN(C3=O)c4cncc5c4cccc5)c6cc(ccc6S2(=O)=O)Cl

> <enantiomer_smiles>
CNC(=O)C1(CCC1)[N@@]2C[C@@]3(CCN(C3=O)c4cncc5c4cccc5)c6cc(ccc6S2(=O)=O)Cl

> <clash_score>
0.7224536062126153

> <docking_score>
3.4028234663852886e+38

> <overlap_score>
0.9901549816131592

> <MMFF_internal_energy>
241.9193204992053

> <docked_smiles>
CNC(=O)C1(CCC1)[N@@]2C[C@@]3(CCN(C3=O)c4cncc5c4cccc5)c6cc(ccc6S2(=O)=O)Cl

$$$$
EDJ-MED-9f4ac58c-1_1
  -OEChem-01042202313D

 57 62  0     1  0  0  0  0  0999 V2000
    6.8705    3.9140   27.5312 C   0  0  0  0  0  0  0  0  0  0  0  0
    4.8986    1.0232   21.2985 C   0  0  0  0  0  0  0  0  0  0  0  0
   12.0781    0.0316   24.1532 C   0  0  0  0  0  0  0  0  0  0  0  0
    3.8974    1.9290   21.5048 C   0  0  0  0  0  0  0  0  0  0  0  0
   12.9147   -0.6032   23.2559 C   0  0  0  0  0  0  0  0  0  0  0  0
    3.7877    2.4205   19.1658 C   0  0  0  0  0  0  0  0  0  0  0  0
   11.0005   -1.4332   22.0435 C   0  0  0  0  0  0  0  0  0  0  0  0
    5.3288    1.2339   17.6062 C   0  0  0  0  0  0  0  0  0  0  0  0
    6.8449   -0.2893   18.3747 C   0  0  0  0  0  0  0  0  0  0  0  0
    5.3995    0.7732   19.9944 C   0  0  0  0  0  0  0  0  0  0  0  0
    4.8238    1.4906   18.9051 C   0  0  0  0  0  0  0  0  0  0  0  0
   10.7056   -0.0626   23.9890 C   0  0  0  0  0  0  0  0  0  0  0  0
   10.1421   -0.7766   22.9242 C   0  0  0  0  0  0  0  0  0  0  0  0
    6.4452   -0.1472   19.6975 C   0  0  0  0  0  0  0  0  0  0  0  0
    3.3444    2.6278   20.4409 C   0  0  0  0  0  0  0  0  0  0  0  0
   12.3697   -1.3298   22.2224 C   0  0  0  0  0  0  0  0  0  0  0  0
    9.9496    0.5589   24.9527 C   0  0  0  0  0  0  0  0  0  0  0  0
    8.2504    0.0168   21.4265 C   0  0  0  0  0  0  0  0  0  0  0  0
    4.9104    2.3441   27.7528 C   0  0  0  0  0  0  0  0  0  0  0  0
    4.7677    3.0537   26.4388 C   0  0  0  0  0  0  0  0  0  0  0  0
    8.0155   -2.1541   22.4325 C   0  0  0  0  0  0  0  0  0  0  0  0
    6.9880   -1.9367   21.3575 C   0  0  0  0  0  0  0  0  0  0  0  0
    7.8737   -0.1194   23.8825 C   0  0  0  0  0  0  0  0  0  0  0  0
    6.1458    2.7877   27.0020 C   0  0  0  0  0  0  0  0  0  0  0  0
    8.6253   -0.7606   22.6923 C   0  0  3  0  0  0  0  0  0  0  0  0
    6.9941    1.7268   26.3371 C   0  0  0  0  0  0  0  0  0  0  0  0
    7.4544    4.8215   27.9576 N   0  0  0  0  0  0  0  0  0  0  0  0
    6.3072    0.3768   17.3417 N   0  0  0  0  0  0  0  0  0  0  0  0
    7.2305   -0.6898   20.7785 N   0  0  0  0  0  0  0  0  0  0  0  0
    8.6625    1.0133   24.4989 N   0  0  0  0  0  0  0  0  0  0  0  0
   10.3166    0.7434   26.1217 O   0  0  0  0  0  0  0  0  0  0  0  0
    8.8196    1.0408   21.0766 O   0  0  0  0  0  0  0  0  0  0  0  0
    6.9311    2.7494   23.9334 O   0  0  0  0  0  0  0  0  0  0  0  0
    8.8702    3.3156   25.4517 O   0  0  0  0  0  0  0  0  0  0  0  0
    7.8873    2.3819   24.9522 S   0  0  0  0  0  0  0  0  0  0  0  0
    2.0806    3.7708   20.7461 Cl  0  0  0  0  0  0  0  0  0  0  0  0
   13.4293   -2.1466   21.1128 Cl  0  0  0  0  0  0  0  0  0  0  0  0
    5.3130    0.4890   22.1566 H   0  0  0  0  0  0  0  0  0  0  0  0
   12.5191    0.5957   24.9706 H   0  0  0  0  0  0  0  0  0  0  0  0
    3.5294    2.1039   22.5231 H   0  0  0  0  0  0  0  0  0  0  0  0
   13.9921   -0.5215   23.3809 H   0  0  0  0  0  0  0  0  0  0  0  0
    3.3519    2.9678   18.3252 H   0  0  0  0  0  0  0  0  0  0  0  0
   10.6170   -2.0260   21.2272 H   0  0  0  0  0  0  0  0  0  0  0  0
    4.9149    1.7517   16.7475 H   0  0  0  0  0  0  0  0  0  0  0  0
    7.6461   -0.9760   18.1040 H   0  0  0  0  0  0  0  0  0  0  0  0
    4.6181    2.8815   28.6480 H   0  0  0  0  0  0  0  0  0  0  0  0
    4.6731    1.2869   27.7817 H   0  0  0  0  0  0  0  0  0  0  0  0
    4.4338    2.4717   25.5875 H   0  0  0  0  0  0  0  0  0  0  0  0
    4.3790    4.0656   26.4549 H   0  0  0  0  0  0  0  0  0  0  0  0
    7.5124   -2.5282   23.3379 H   0  0  0  0  0  0  0  0  0  0  0  0
    8.7585   -2.9105   22.1421 H   0  0  0  0  0  0  0  0  0  0  0  0
    7.0610   -2.7257   20.5719 H   0  0  0  0  0  0  0  0  0  0  0  0
    5.9524   -1.9968   21.7699 H   0  0  0  0  0  0  0  0  0  0  0  0
    6.8990    0.2933   23.5632 H   0  0  0  0  0  0  0  0  0  0  0  0
    7.6456   -0.8834   24.6465 H   0  0  0  0  0  0  0  0  0  0  0  0
    6.3739    0.9078   25.9624 H   0  0  0  0  0  0  0  0  0  0  0  0
    7.7323    1.3219   27.0346 H   0  0  0  0  0  0  0  0  0  0  0  0
  1 24  1  0  0  0  0
  1 27  3  0  0  0  0
  2  4  2  0  0  0  0
  2 10  1  0  0  0  0
  3  5  2  0  0  0  0
  3 12  1  0  0  0  0
  4 15  1  0  0  0  0
  5 16  1  0  0  0  0
  6 11  1  0  0  0  0
  6 15  2  0  0  0  0
  7 13  1  0  0  0  0
  7 16  2  0  0  0  0
  8 11  2  0  0  0  0
  8 28  1  0  0  0  0
  9 14  1  0  0  0  0
  9 28  2  0  0  0  0
 10 11  1  0  0  0  0
 10 14  2  0  0  0  0
 12 13  2  0  0  0  0
 12 17  1  0  0  0  0
 13 25  1  0  0  0  0
 14 29  1  0  0  0  0
 15 36  1  0  0  0  0
 16 37  1  0  0  0  0
 17 30  1  0  0  0  0
 17 31  2  0  0  0  0
 18 25  1  0  0  0  0
 18 29  1  0  0  0  0
 18 32  2  0  0  0  0
 19 20  1  0  0  0  0
 19 24  1  0  0  0  0
 20 24  1  0  0  0  0
 21 22  1  0  0  0  0
 21 25  1  0  0  0  0
 22 29  1  0  0  0  0
 23 25  1  0  0  0  0
 23 30  1  0  0  0  0
 24 26  1  0  0  0  0
 26 35  1  0  0  0  0
 30 35  1  0  0  0  0
 33 35  2  0  0  0  0
 34 35  2  0  0  0  0
  2 38  1  0  0  0  0
  3 39  1  0  0  0  0
  4 40  1  0  0  0  0
  5 41  1  0  0  0  0
  6 42  1  0  0  0  0
  7 43  1  0  0  0  0
  8 44  1  0  0  0  0
  9 45  1  0  0  0  0
 19 46  1  0  0  0  0
 19 47  1  0  0  0  0
 20 48  1  0  0  0  0
 20 49  1  0  0  0  0
 21 50  1  0  0  0  0
 21 51  1  0  0  0  0
 22 52  1  0  0  0  0
 22 53  1  0  0  0  0
 23 54  1  0  0  0  0
 23 55  1  0  0  0  0
 26 56  1  0  0  0  0
 26 57  1  0  0  0  0
M  END
> <scaffold>
tetrahydroisoquinoline-5spiro-isoquinoline

> <compound>
EDJ-MED-9f4ac58c-1

> <compound_smiles>
c1cc2c(cc1Cl)cncc2N3CCC4(C3=O)CN(C(=O)c5c4cc(cc5)Cl)S(=O)(=O)CC6(CC6)C#N

> <enantiomer_smiles>
c1cc2c(cc1Cl)cncc2N3CC[C@@]4(C3=O)CN(C(=O)c5c4cc(cc5)Cl)S(=O)(=O)CC6(CC6)C#N

> <clash_score>
0

> <docking_score>
3.4028234663852886e+38

> <overlap_score>
0.986314594745636

> <MMFF_internal_energy>
89.58237232859756

> <docked_smiles>
c1cc2c(cc1Cl)cncc2N3CC[C@@]4(C3=O)CN(C(=O)c5c4cc(cc5)Cl)S(=O)(=O)CC6(CC6)C#N

$$$$
EDJ-MED-5cd3920d-4_1
  -OEChem-01042202313D

 60 65  0     1  0  0  0  0  0999 V2000
    3.7877    2.4205   19.1658 C   0  0  0  0  0  0  0  0  0  0  0  0
   12.0781    0.0316   24.1532 C   0  0  0  0  0  0  0  0  0  0  0  0
    3.3444    2.6278   20.4409 C   0  0  0  0  0  0  0  0  0  0  0  0
   12.9147   -0.6032   23.2559 C   0  0  0  0  0  0  0  0  0  0  0  0
    4.8986    1.0232   21.2985 C   0  0  0  0  0  0  0  0  0  0  0  0
   11.0005   -1.4332   22.0435 C   0  0  0  0  0  0  0  0  0  0  0  0
    5.3288    1.2339   17.6062 C   0  0  0  0  0  0  0  0  0  0  0  0
    6.8449   -0.2893   18.3747 C   0  0  0  0  0  0  0  0  0  0  0  0
    4.8238    1.4906   18.9051 C   0  0  0  0  0  0  0  0  0  0  0  0
    5.3995    0.7732   19.9944 C   0  0  0  0  0  0  0  0  0  0  0  0
   10.7056   -0.0626   23.9890 C   0  0  0  0  0  0  0  0  0  0  0  0
   10.1421   -0.7766   22.9242 C   0  0  0  0  0  0  0  0  0  0  0  0
    3.8974    1.9290   21.5048 C   0  0  0  0  0  0  0  0  0  0  0  0
    6.4452   -0.1472   19.6975 C   0  0  0  0  0  0  0  0  0  0  0  0
   12.3697   -1.3298   22.2224 C   0  0  0  0  0  0  0  0  0  0  0  0
    9.9496    0.5589   24.9527 C   0  0  0  0  0  0  0  0  0  0  0  0
    8.2504    0.0168   21.4265 C   0  0  0  0  0  0  0  0  0  0  0  0
    7.2743    2.2339   25.9911 C   0  0  0  0  0  0  0  0  0  0  0  0
    7.6484    3.1063   23.6248 C   0  0  0  0  0  0  0  0  0  0  0  0
    8.8572    3.4809   24.4312 C   0  0  0  0  0  0  0  0  0  0  0  0
    8.0155   -2.1541   22.4325 C   0  0  0  0  0  0  0  0  0  0  0  0
    6.9880   -1.9367   21.3575 C   0  0  0  0  0  0  0  0  0  0  0  0
    7.8737   -0.1194   23.8825 C   0  0  0  0  0  0  0  0  0  0  0  0
    8.6253   -0.7606   22.6923 C   0  0  3  0  0  0  0  0  0  0  0  0
    8.0937    2.2235   24.7641 C   0  0  0  0  0  0  0  0  0  0  0  0
    7.3837    1.9520   28.4592 C   0  0  0  0  0  0  0  0  0  0  0  0
    3.3812    2.1809   22.8921 C   0  0  0  0  0  0  0  0  0  0  0  0
    6.3072    0.3768   17.3417 N   0  0  0  0  0  0  0  0  0  0  0  0
    7.2305   -0.6898   20.7785 N   0  0  0  0  0  0  0  0  0  0  0  0
    8.6625    1.0133   24.4989 N   0  0  0  0  0  0  0  0  0  0  0  0
    7.9894    1.9860   27.1473 N   0  0  0  0  0  0  0  0  0  0  0  0
   10.3233    0.7301   26.1084 O   0  0  0  0  0  0  0  0  0  0  0  0
    8.8205    1.0412   21.0776 O   0  0  0  0  0  0  0  0  0  0  0  0
    6.0711    2.4522   25.9123 O   0  0  0  0  0  0  0  0  0  0  0  0
    3.4803    1.0599   23.6535 F   0  0  0  0  0  0  0  0  0  0  0  0
    2.0649    2.5174   22.8711 F   0  0  0  0  0  0  0  0  0  0  0  0
   13.4287   -2.1467   21.1125 Cl  0  0  0  0  0  0  0  0  0  0  0  0
    3.3431    2.9748   18.3360 H   0  0  0  0  0  0  0  0  0  0  0  0
   12.5188    0.5959   24.9712 H   0  0  0  0  0  0  0  0  0  0  0  0
    2.5422    3.3527   20.6266 H   0  0  0  0  0  0  0  0  0  0  0  0
   13.9920   -0.5225   23.3819 H   0  0  0  0  0  0  0  0  0  0  0  0
    5.3189    0.4834   22.1514 H   0  0  0  0  0  0  0  0  0  0  0  0
   10.6143   -2.0253   21.2265 H   0  0  0  0  0  0  0  0  0  0  0  0
    4.9144    1.7509   16.7472 H   0  0  0  0  0  0  0  0  0  0  0  0
    7.6460   -0.9759   18.1038 H   0  0  0  0  0  0  0  0  0  0  0  0
    6.7552    3.7072   23.7499 H   0  0  0  0  0  0  0  0  0  0  0  0
    7.8098    2.7620   22.6100 H   0  0  0  0  0  0  0  0  0  0  0  0
    9.8268    3.3863   23.9564 H   0  0  0  0  0  0  0  0  0  0  0  0
    8.7731    4.3325   25.0962 H   0  0  0  0  0  0  0  0  0  0  0  0
    7.5125   -2.5270   23.3387 H   0  0  0  0  0  0  0  0  0  0  0  0
    8.7589   -2.9107   22.1432 H   0  0  0  0  0  0  0  0  0  0  0  0
    7.0600   -2.7259   20.5720 H   0  0  0  0  0  0  0  0  0  0  0  0
    5.9527   -1.9961   21.7709 H   0  0  0  0  0  0  0  0  0  0  0  0
    6.9276    0.3247   23.5633 H   0  0  0  0  0  0  0  0  0  0  0  0
    7.6527   -0.8545   24.6567 H   0  0  0  0  0  0  0  0  0  0  0  0
    7.4071    2.9593   28.9006 H   0  0  0  0  0  0  0  0  0  0  0  0
    6.3405    1.6140   28.3726 H   0  0  0  0  0  0  0  0  0  0  0  0
    7.9423    1.2567   29.1029 H   0  0  0  0  0  0  0  0  0  0  0  0
    3.9249    2.9807   23.3982 H   0  0  0  0  0  0  0  0  0  0  0  0
    8.9884    1.8197   27.0716 H   0  0  0  0  0  0  0  0  0  0  0  0
  1  3  2  0  0  0  0
  1  9  1  0  0  0  0
  2  4  2  0  0  0  0
  2 11  1  0  0  0  0
  3 13  1  0  0  0  0
  4 15  1  0  0  0  0
  5 10  1  0  0  0  0
  5 13  2  0  0  0  0
  6 12  1  0  0  0  0
  6 15  2  0  0  0  0
  7  9  2  0  0  0  0
  7 28  1  0  0  0  0
  8 14  1  0  0  0  0
  8 28  2  0  0  0  0
  9 10  1  0  0  0  0
 10 14  2  0  0  0  0
 11 12  2  0  0  0  0
 11 16  1  0  0  0  0
 12 24  1  0  0  0  0
 13 27  1  0  0  0  0
 14 29  1  0  0  0  0
 15 37  1  0  0  0  0
 16 30  1  0  0  0  0
 16 32  2  0  0  0  0
 17 24  1  0  0  0  0
 17 29  1  0  0  0  0
 17 33  2  0  0  0  0
 18 25  1  0  0  0  0
 18 31  1  0  0  0  0
 18 34  2  0  0  0  0
 19 20  1  0  0  0  0
 19 25  1  0  0  0  0
 20 25  1  0  0  0  0
 21 22  1  0  0  0  0
 21 24  1  0  0  0  0
 22 29  1  0  0  0  0
 23 24  1  0  0  0  0
 23 30  1  0  0  0  0
 25 30  1  0  0  0  0
 26 31  1  0  0  0  0
 27 35  1  0  0  0  0
 27 36  1  0  0  0  0
  1 38  1  0  0  0  0
  2 39  1  0  0  0  0
  3 40  1  0  0  0  0
  4 41  1  0  0  0  0
  5 42  1  0  0  0  0
  6 43  1  0  0  0  0
  7 44  1  0  0  0  0
  8 45  1  0  0  0  0
 19 46  1  0  0  0  0
 19 47  1  0  0  0  0
 20 48  1  0  0  0  0
 20 49  1  0  0  0  0
 21 50  1  0  0  0  0
 21 51  1  0  0  0  0
 22 52  1  0  0  0  0
 22 53  1  0  0  0  0
 23 54  1  0  0  0  0
 23 55  1  0  0  0  0
 26 56  1  0  0  0  0
 26 57  1  0  0  0  0
 26 58  1  0  0  0  0
 27 59  1  0  0  0  0
 31 60  1  0  0  0  0
M  END
> <scaffold>
tetrahydroisoquinoline-5spiro-isoquinoline

> <compound>
EDJ-MED-5cd3920d-4

> <compound_smiles>
CNC(=O)C1(CC1)N2CC3(CCN(C3=O)c4cncc5c4cc(cc5)C(F)F)c6cc(ccc6C2=O)Cl

> <enantiomer_smiles>
CNC(=O)C1(CC1)N2C[C@]3(CCN(C3=O)c4cncc5c4cc(cc5)C(F)F)c6cc(ccc6C2=O)Cl

> <clash_score>
0

> <docking_score>
3.4028234663852886e+38

> <overlap_score>
1.0

> <MMFF_internal_energy>
160.829159026165

> <docked_smiles>
CNC(=O)C1(CC1)N2C[C@]3(CCN(C3=O)c4cncc5c4cc(cc5)C(F)F)c6cc(ccc6C2=O)Cl

$$$$
ALP-POS-ecbed2ba-22_1
  -OEChem-01042202313D

 61 66  0     1  0  0  0  0  0999 V2000
    7.7320    2.8252   29.1914 C   0  0  0  0  0  0  0  0  0  0  0  0
    3.3444    2.6278   20.4409 C   0  0  0  0  0  0  0  0  0  0  0  0
    3.8974    1.9290   21.5048 C   0  0  0  0  0  0  0  0  0  0  0  0
    3.7877    2.4205   19.1658 C   0  0  0  0  0  0  0  0  0  0  0  0
    4.8986    1.0232   21.2985 C   0  0  0  0  0  0  0  0  0  0  0  0
   12.0781    0.0316   24.1532 C   0  0  0  0  0  0  0  0  0  0  0  0
   12.9147   -0.6032   23.2559 C   0  0  0  0  0  0  0  0  0  0  0  0
   11.0005   -1.4332   22.0435 C   0  0  0  0  0  0  0  0  0  0  0  0
    5.3288    1.2339   17.6062 C   0  0  0  0  0  0  0  0  0  0  0  0
    6.8449   -0.2893   18.3747 C   0  0  0  0  0  0  0  0  0  0  0  0
    4.8238    1.4906   18.9051 C   0  0  0  0  0  0  0  0  0  0  0  0
    5.3995    0.7732   19.9944 C   0  0  0  0  0  0  0  0  0  0  0  0
   10.7056   -0.0626   23.9890 C   0  0  0  0  0  0  0  0  0  0  0  0
   10.1421   -0.7766   22.9242 C   0  0  0  0  0  0  0  0  0  0  0  0
    6.4452   -0.1472   19.6975 C   0  0  0  0  0  0  0  0  0  0  0  0
   12.3697   -1.3298   22.2224 C   0  0  0  0  0  0  0  0  0  0  0  0
    8.2504    0.0168   21.4265 C   0  0  0  0  0  0  0  0  0  0  0  0
    9.9496    0.5589   24.9527 C   0  0  0  0  0  0  0  0  0  0  0  0
    5.8883    0.3182   28.7926 C   0  0  0  0  0  0  0  0  0  0  0  0
    5.1032    0.7649   27.5925 C   0  0  0  0  0  0  0  0  0  0  0  0
    8.0155   -2.1541   22.4325 C   0  0  0  0  0  0  0  0  0  0  0  0
    6.9880   -1.9367   21.3575 C   0  0  0  0  0  0  0  0  0  0  0  0
    7.8737   -0.1194   23.8825 C   0  0  0  0  0  0  0  0  0  0  0  0
    8.6253   -0.7606   22.6923 C   0  0  3  0  0  0  0  0  0  0  0  0
    6.4702    1.3516   27.8565 C   0  0  0  0  0  0  0  0  0  0  0  0
    6.5461    2.7748   28.3367 C   0  0  0  0  0  0  0  0  0  0  0  0
    7.6088    0.9304   26.9546 C   0  0  0  0  0  0  0  0  0  0  0  0
    8.6701    2.8792   29.8725 N   0  0  0  0  0  0  0  0  0  0  0  0
    6.3072    0.3768   17.3417 N   0  0  0  0  0  0  0  0  0  0  0  0
    7.2305   -0.6898   20.7785 N   0  0  0  0  0  0  0  0  0  0  0  0
    8.6625    1.0133   24.4989 N   0  0  3  0  0  0  0  0  0  0  0  0
    8.8314    1.0394   21.0790 O   0  0  0  0  0  0  0  0  0  0  0  0
    6.4559    2.2241   24.9990 O   0  0  0  0  0  0  0  0  0  0  0  0
    8.6119    3.1278   25.9583 O   0  0  0  0  0  0  0  0  0  0  0  0
    7.7725    2.0180   25.5623 S   0  0  0  0  0  0  0  0  0  0  0  0
   13.4285   -2.1410   21.1076 Cl  0  0  0  0  0  0  0  0  0  0  0  0
    2.5443    3.3508   20.6368 H   0  0  0  0  0  0  0  0  0  0  0  0
    3.5189    2.1137   22.5166 H   0  0  0  0  0  0  0  0  0  0  0  0
    3.3421    2.9744   18.3363 H   0  0  0  0  0  0  0  0  0  0  0  0
    5.3131    0.4893   22.1569 H   0  0  0  0  0  0  0  0  0  0  0  0
   12.5038    0.5986   24.9731 H   0  0  0  0  0  0  0  0  0  0  0  0
   13.9925   -0.5165   23.3773 H   0  0  0  0  0  0  0  0  0  0  0  0
   10.6052   -2.0169   21.2237 H   0  0  0  0  0  0  0  0  0  0  0  0
    4.9151    1.7511   16.7471 H   0  0  0  0  0  0  0  0  0  0  0  0
    7.6455   -0.9765   18.1038 H   0  0  0  0  0  0  0  0  0  0  0  0
    9.7866   -0.1187   25.8304 H   0  0  0  0  0  0  0  0  0  0  0  0
   10.4816    1.4567   25.3600 H   0  0  0  0  0  0  0  0  0  0  0  0
    5.5413    0.6382   29.7680 H   0  0  0  0  0  0  0  0  0  0  0  0
    6.2997   -0.6841   28.7799 H   0  0  0  0  0  0  0  0  0  0  0  0
    4.9889    0.0615   26.7762 H   0  0  0  0  0  0  0  0  0  0  0  0
    4.2305    1.3839   27.7643 H   0  0  0  0  0  0  0  0  0  0  0  0
    7.5167   -2.5459   23.3332 H   0  0  0  0  0  0  0  0  0  0  0  0
    8.7666   -2.9029   22.1426 H   0  0  0  0  0  0  0  0  0  0  0  0
    7.0601   -2.7250   20.5715 H   0  0  0  0  0  0  0  0  0  0  0  0
    5.9530   -1.9963   21.7709 H   0  0  0  0  0  0  0  0  0  0  0  0
    6.8882    0.2643   23.5640 H   0  0  0  0  0  0  0  0  0  0  0  0
    7.6667   -0.8657   24.6729 H   0  0  0  0  0  0  0  0  0  0  0  0
    5.6425    3.0282   28.8931 H   0  0  0  0  0  0  0  0  0  0  0  0
    6.6392    3.4503   27.4850 H   0  0  0  0  0  0  0  0  0  0  0  0
    7.4436   -0.0759   26.5599 H   0  0  0  0  0  0  0  0  0  0  0  0
    8.5609    0.9485   27.4918 H   0  0  0  0  0  0  0  0  0  0  0  0
  1 26  1  0  0  0  0
  1 28  3  0  0  0  0
  2  3  2  0  0  0  0
  2  4  1  0  0  0  0
  3  5  1  0  0  0  0
  4 11  2  0  0  0  0
  5 12  2  0  0  0  0
  6  7  2  0  0  0  0
  6 13  1  0  0  0  0
  7 16  1  0  0  0  0
  8 14  1  0  0  0  0
  8 16  2  0  0  0  0
  9 11  1  0  0  0  0
  9 29  2  0  0  0  0
 10 15  2  0  0  0  0
 10 29  1  0  0  0  0
 11 12  1  0  0  0  0
 12 15  1  0  0  0  0
 13 14  2  0  0  0  0
 13 18  1  0  0  0  0
 14 24  1  0  0  0  0
 15 30  1  0  0  0  0
 16 36  1  0  0  0  0
 17 24  1  0  0  0  0
 17 30  1  0  0  0  0
 17 32  2  0  0  0  0
 18 31  1  0  0  0  0
 19 20  1  0  0  0  0
 19 25  1  0  0  0  0
 20 25  1  0  0  0  0
 21 22  1  0  0  0  0
 21 24  1  0  0  0  0
 22 30  1  0  0  0  0
 23 24  1  0  0  0  0
 23 31  1  0  0  0  0
 25 26  1  0  0  0  0
 25 27  1  0  0  0  0
 27 35  1  0  0  0  0
 31 35  1  0  0  0  0
 33 35  2  0  0  0  0
 34 35  2  0  0  0  0
  2 37  1  0  0  0  0
  3 38  1  0  0  0  0
  4 39  1  0  0  0  0
  5 40  1  0  0  0  0
  6 41  1  0  0  0  0
  7 42  1  0  0  0  0
  8 43  1  0  0  0  0
  9 44  1  0  0  0  0
 10 45  1  0  0  0  0
 18 46  1  0  0  0  0
 18 47  1  0  0  0  0
 19 48  1  0  0  0  0
 19 49  1  0  0  0  0
 20 50  1  0  0  0  0
 20 51  1  0  0  0  0
 21 52  1  0  0  0  0
 21 53  1  0  0  0  0
 22 54  1  0  0  0  0
 22 55  1  0  0  0  0
 23 56  1  0  0  0  0
 23 57  1  0  0  0  0
 26 58  1  0  0  0  0
 26 59  1  0  0  0  0
 27 60  1  0  0  0  0
 27 61  1  0  0  0  0
M  END
> <scaffold>
tetrahydroisoquinoline-5spiro-isoquinoline

> <compound>
ALP-POS-ecbed2ba-22

> <compound_smiles>
c1ccc2c(c1)cncc2N3CCC4(C3=O)CN(Cc5c4cc(cc5)Cl)S(=O)(=O)CC6(CC6)CC#N

> <enantiomer_smiles>
c1ccc2c(c1)cncc2N3CC[C@]4(C3=O)C[N@](Cc5c4cc(cc5)Cl)S(=O)(=O)CC6(CC6)CC#N

> <clash_score>
0

> <docking_score>
3.4028234663852886e+38

> <overlap_score>
0.9686206579208374

> <MMFF_internal_energy>
154.14313537732693

> <docked_smiles>
c1ccc2c(c1)cncc2N3CC[C@]4(C3=O)C[N@](Cc5c4cc(cc5)Cl)S(=O)(=O)CC6(CC6)CC#N

$$$$
EDJ-MED-5cd3920d-5_1
  -OEChem-01042202313D

 60 65  0     1  0  0  0  0  0999 V2000
    3.3444    2.6278   20.4409 C   0  0  0  0  0  0  0  0  0  0  0  0
    3.8974    1.9290   21.5048 C   0  0  0  0  0  0  0  0  0  0  0  0
    3.7877    2.4205   19.1658 C   0  0  0  0  0  0  0  0  0  0  0  0
    4.8986    1.0232   21.2985 C   0  0  0  0  0  0  0  0  0  0  0  0
   12.0781    0.0316   24.1532 C   0  0  0  0  0  0  0  0  0  0  0  0
   12.9147   -0.6032   23.2559 C   0  0  0  0  0  0  0  0  0  0  0  0
   11.0005   -1.4332   22.0435 C   0  0  0  0  0  0  0  0  0  0  0  0
    5.3288    1.2339   17.6062 C   0  0  0  0  0  0  0  0  0  0  0  0
    6.8449   -0.2893   18.3747 C   0  0  0  0  0  0  0  0  0  0  0  0
    4.8238    1.4906   18.9051 C   0  0  0  0  0  0  0  0  0  0  0  0
    5.3995    0.7732   19.9944 C   0  0  0  0  0  0  0  0  0  0  0  0
   10.7056   -0.0626   23.9890 C   0  0  0  0  0  0  0  0  0  0  0  0
   10.1421   -0.7766   22.9242 C   0  0  0  0  0  0  0  0  0  0  0  0
    6.4452   -0.1472   19.6975 C   0  0  0  0  0  0  0  0  0  0  0  0
   12.3697   -1.3298   22.2224 C   0  0  0  0  0  0  0  0  0  0  0  0
    8.2504    0.0168   21.4265 C   0  0  0  0  0  0  0  0  0  0  0  0
    9.9496    0.5589   24.9527 C   0  0  0  0  0  0  0  0  0  0  0  0
    5.3313    1.6255   27.9757 C   0  0  0  0  0  0  0  0  0  0  0  0
    5.9853    0.6990   28.9605 C   0  0  0  0  0  0  0  0  0  0  0  0
    8.0155   -2.1541   22.4325 C   0  0  0  0  0  0  0  0  0  0  0  0
    6.9880   -1.9367   21.3575 C   0  0  0  0  0  0  0  0  0  0  0  0
    7.8737   -0.1194   23.8825 C   0  0  0  0  0  0  0  0  0  0  0  0
    8.6253   -0.7606   22.6923 C   0  0  3  0  0  0  0  0  0  0  0  0
    6.8379    1.5828   28.0804 C   0  0  0  0  0  0  0  0  0  0  0  0
    7.6088    0.9304   26.9546 C   0  0  0  0  0  0  0  0  0  0  0  0
    7.5340    2.7529   28.7194 C   0  0  0  0  0  0  0  0  0  0  0  0
    6.3072    0.3768   17.3417 N   0  0  0  0  0  0  0  0  0  0  0  0
    7.2305   -0.6898   20.7785 N   0  0  0  0  0  0  0  0  0  0  0  0
    8.6625    1.0133   24.4989 N   0  0  3  0  0  0  0  0  0  0  0  0
    8.8314    1.0394   21.0790 O   0  0  0  0  0  0  0  0  0  0  0  0
    6.4559    2.2241   24.9990 O   0  0  0  0  0  0  0  0  0  0  0  0
    8.6119    3.1278   25.9583 O   0  0  0  0  0  0  0  0  0  0  0  0
    8.8709    2.5245   28.7562 F   0  0  0  0  0  0  0  0  0  0  0  0
    7.1244    2.8809   30.0063 F   0  0  0  0  0  0  0  0  0  0  0  0
    7.7725    2.0180   25.5623 S   0  0  0  0  0  0  0  0  0  0  0  0
   13.4285   -2.1410   21.1076 Cl  0  0  0  0  0  0  0  0  0  0  0  0
    2.5443    3.3508   20.6368 H   0  0  0  0  0  0  0  0  0  0  0  0
    3.5189    2.1137   22.5166 H   0  0  0  0  0  0  0  0  0  0  0  0
    3.3421    2.9744   18.3363 H   0  0  0  0  0  0  0  0  0  0  0  0
    5.3131    0.4893   22.1569 H   0  0  0  0  0  0  0  0  0  0  0  0
   12.5038    0.5986   24.9731 H   0  0  0  0  0  0  0  0  0  0  0  0
   13.9925   -0.5165   23.3773 H   0  0  0  0  0  0  0  0  0  0  0  0
   10.6052   -2.0169   21.2237 H   0  0  0  0  0  0  0  0  0  0  0  0
    4.9151    1.7511   16.7471 H   0  0  0  0  0  0  0  0  0  0  0  0
    7.6455   -0.9765   18.1038 H   0  0  0  0  0  0  0  0  0  0  0  0
    9.7866   -0.1187   25.8304 H   0  0  0  0  0  0  0  0  0  0  0  0
   10.4816    1.4567   25.3600 H   0  0  0  0  0  0  0  0  0  0  0  0
    4.8586    1.1833   27.1066 H   0  0  0  0  0  0  0  0  0  0  0  0
    4.8078    2.4890   28.3686 H   0  0  0  0  0  0  0  0  0  0  0  0
    5.8996    0.9421   30.0130 H   0  0  0  0  0  0  0  0  0  0  0  0
    5.9505   -0.3636   28.7510 H   0  0  0  0  0  0  0  0  0  0  0  0
    7.5167   -2.5459   23.3332 H   0  0  0  0  0  0  0  0  0  0  0  0
    8.7666   -2.9029   22.1426 H   0  0  0  0  0  0  0  0  0  0  0  0
    7.0601   -2.7250   20.5715 H   0  0  0  0  0  0  0  0  0  0  0  0
    5.9530   -1.9963   21.7709 H   0  0  0  0  0  0  0  0  0  0  0  0
    6.8882    0.2643   23.5640 H   0  0  0  0  0  0  0  0  0  0  0  0
    7.6667   -0.8657   24.6729 H   0  0  0  0  0  0  0  0  0  0  0  0
    7.0989    0.0296   26.6018 H   0  0  0  0  0  0  0  0  0  0  0  0
    8.6192    0.6630   27.2756 H   0  0  0  0  0  0  0  0  0  0  0  0
    7.3490    3.6940   28.1923 H   0  0  0  0  0  0  0  0  0  0  0  0
  1  2  2  0  0  0  0
  1  3  1  0  0  0  0
  2  4  1  0  0  0  0
  3 10  2  0  0  0  0
  4 11  2  0  0  0  0
  5  6  2  0  0  0  0
  5 12  1  0  0  0  0
  6 15  1  0  0  0  0
  7 13  1  0  0  0  0
  7 15  2  0  0  0  0
  8 10  1  0  0  0  0
  8 27  2  0  0  0  0
  9 14  2  0  0  0  0
  9 27  1  0  0  0  0
 10 11  1  0  0  0  0
 11 14  1  0  0  0  0
 12 13  2  0  0  0  0
 12 17  1  0  0  0  0
 13 23  1  0  0  0  0
 14 28  1  0  0  0  0
 15 36  1  0  0  0  0
 16 23  1  0  0  0  0
 16 28  1  0  0  0  0
 16 30  2  0  0  0  0
 17 29  1  0  0  0  0
 18 19  1  0  0  0  0
 18 24  1  0  0  0  0
 19 24  1  0  0  0  0
 20 21  1  0  0  0  0
 20 23  1  0  0  0  0
 21 28  1  0  0  0  0
 22 23  1  0  0  0  0
 22 29  1  0  0  0  0
 24 25  1  0  0  0  0
 24 26  1  0  0  0  0
 25 35  1  0  0  0  0
 26 33  1  0  0  0  0
 26 34  1  0  0  0  0
 29 35  1  0  0  0  0
 31 35  2  0  0  0  0
 32 35  2  0  0  0  0
  1 37  1  0  0  0  0
  2 38  1  0  0  0  0
  3 39  1  0  0  0  0
  4 40  1  0  0  0  0
  5 41  1  0  0  0  0
  6 42  1  0  0  0  0
  7 43  1  0  0  0  0
  8 44  1  0  0  0  0
  9 45  1  0  0  0  0
 17 46  1  0  0  0  0
 17 47  1  0  0  0  0
 18 48  1  0  0  0  0
 18 49  1  0  0  0  0
 19 50  1  0  0  0  0
 19 51  1  0  0  0  0
 20 52  1  0  0  0  0
 20 53  1  0  0  0  0
 21 54  1  0  0  0  0
 21 55  1  0  0  0  0
 22 56  1  0  0  0  0
 22 57  1  0  0  0  0
 25 58  1  0  0  0  0
 25 59  1  0  0  0  0
 26 60  1  0  0  0  0
M  END
> <scaffold>
tetrahydroisoquinoline-5spiro-isoquinoline

> <compound>
EDJ-MED-5cd3920d-5

> <compound_smiles>
c1ccc2c(c1)cncc2N3CCC4(C3=O)CN(Cc5c4cc(cc5)Cl)S(=O)(=O)CC6(CC6)C(F)F

> <enantiomer_smiles>
c1ccc2c(c1)cncc2N3CC[C@]4(C3=O)C[N@](Cc5c4cc(cc5)Cl)S(=O)(=O)CC6(CC6)C(F)F

> <clash_score>
0

> <docking_score>
3.4028234663852886e+38

> <overlap_score>
0.9682523608207703

> <MMFF_internal_energy>
128.59706451636984

> <docked_smiles>
c1ccc2c(c1)cncc2N3CC[C@]4(C3=O)C[N@](Cc5c4cc(cc5)Cl)S(=O)(=O)CC6(CC6)C(F)F

$$$$
MAT-POS-c2d406ed-4_1
  -OEChem-01042202313D

 59 64  0     1  0  0  0  0  0999 V2000
    6.5919    2.6467   28.4332 C   0  0  0  0  0  0  0  0  0  0  0  0
    3.3444    2.6278   20.4409 C   0  0  0  0  0  0  0  0  0  0  0  0
    3.8974    1.9290   21.5048 C   0  0  0  0  0  0  0  0  0  0  0  0
    3.7877    2.4205   19.1658 C   0  0  0  0  0  0  0  0  0  0  0  0
    4.8986    1.0232   21.2985 C   0  0  0  0  0  0  0  0  0  0  0  0
   12.0781    0.0316   24.1532 C   0  0  0  0  0  0  0  0  0  0  0  0
   12.9147   -0.6032   23.2559 C   0  0  0  0  0  0  0  0  0  0  0  0
   11.0005   -1.4332   22.0435 C   0  0  0  0  0  0  0  0  0  0  0  0
    5.3288    1.2339   17.6062 C   0  0  0  0  0  0  0  0  0  0  0  0
    6.8449   -0.2893   18.3747 C   0  0  0  0  0  0  0  0  0  0  0  0
    4.8238    1.4906   18.9051 C   0  0  0  0  0  0  0  0  0  0  0  0
    5.3995    0.7732   19.9944 C   0  0  0  0  0  0  0  0  0  0  0  0
   10.7056   -0.0626   23.9890 C   0  0  0  0  0  0  0  0  0  0  0  0
   10.1421   -0.7766   22.9242 C   0  0  0  0  0  0  0  0  0  0  0  0
    6.4452   -0.1472   19.6975 C   0  0  0  0  0  0  0  0  0  0  0  0
   12.3697   -1.3298   22.2224 C   0  0  0  0  0  0  0  0  0  0  0  0
    8.2504    0.0168   21.4265 C   0  0  0  0  0  0  0  0  0  0  0  0
    6.9880   -1.9367   21.3575 C   0  0  0  0  0  0  0  0  0  0  0  0
    9.9496    0.5589   24.9527 C   0  0  0  0  0  0  0  0  0  0  0  0
    5.8052    0.2651   28.6879 C   0  0  0  0  0  0  0  0  0  0  0  0
    5.0816    0.8508   27.5115 C   0  0  0  0  0  0  0  0  0  0  0  0
    7.8737   -0.1194   23.8825 C   0  0  0  0  0  0  0  0  0  0  0  0
    6.4734    1.3341   27.8527 C   0  0  0  0  0  0  0  0  0  0  0  0
    8.6253   -0.7606   22.6923 C   0  0  3  0  0  0  0  0  0  0  0  0
    8.4923   -3.3299   22.9762 C   0  0  0  0  0  0  0  0  0  0  0  0
    7.6122    0.9217   26.9471 C   0  0  0  0  0  0  0  0  0  0  0  0
    6.6874    3.7042   28.9009 N   0  0  0  0  0  0  0  0  0  0  0  0
    6.3072    0.3768   17.3417 N   0  0  0  0  0  0  0  0  0  0  0  0
    7.2305   -0.6898   20.7785 N   0  0  0  0  0  0  0  0  0  0  0  0
    8.0155   -2.1541   22.4325 N   0  0  0  0  0  0  0  0  0  0  0  0
    8.6625    1.0133   24.4989 N   0  0  3  0  0  0  0  0  0  0  0  0
    8.7614    1.0713   21.1111 O   0  0  0  0  0  0  0  0  0  0  0  0
    6.4499    2.2393   25.0131 O   0  0  0  0  0  0  0  0  0  0  0  0
    8.6241    3.1172   25.9552 O   0  0  0  0  0  0  0  0  0  0  0  0
    5.8669   -3.1061   20.9436 S   0  0  0  0  0  0  0  0  0  0  0  0
    7.7706    2.0177   25.5606 S   0  0  0  0  0  0  0  0  0  0  0  0
   13.4279   -2.1422   21.1081 Cl  0  0  0  0  0  0  0  0  0  0  0  0
    2.5443    3.3508   20.6368 H   0  0  0  0  0  0  0  0  0  0  0  0
    3.5189    2.1137   22.5166 H   0  0  0  0  0  0  0  0  0  0  0  0
    3.3421    2.9744   18.3363 H   0  0  0  0  0  0  0  0  0  0  0  0
    5.3131    0.4893   22.1569 H   0  0  0  0  0  0  0  0  0  0  0  0
   12.5037    0.6013   24.9716 H   0  0  0  0  0  0  0  0  0  0  0  0
   13.9924   -0.5161   23.3771 H   0  0  0  0  0  0  0  0  0  0  0  0
   10.6054   -2.0193   21.2246 H   0  0  0  0  0  0  0  0  0  0  0  0
    4.9151    1.7511   16.7471 H   0  0  0  0  0  0  0  0  0  0  0  0
    7.6455   -0.9765   18.1038 H   0  0  0  0  0  0  0  0  0  0  0  0
    9.7900   -0.1158   25.8353 H   0  0  0  0  0  0  0  0  0  0  0  0
   10.4827    1.4584   25.3589 H   0  0  0  0  0  0  0  0  0  0  0  0
    5.4439    0.5207   29.6777 H   0  0  0  0  0  0  0  0  0  0  0  0
    6.1592   -0.7558   28.6030 H   0  0  0  0  0  0  0  0  0  0  0  0
    4.9502    0.2217   26.6387 H   0  0  0  0  0  0  0  0  0  0  0  0
    4.2356    1.4976   27.7145 H   0  0  0  0  0  0  0  0  0  0  0  0
    6.8894    0.2552   23.5572 H   0  0  0  0  0  0  0  0  0  0  0  0
    7.6711   -0.8594   24.6759 H   0  0  0  0  0  0  0  0  0  0  0  0
    9.3556   -3.6871   22.3957 H   0  0  0  0  0  0  0  0  0  0  0  0
    8.7995   -3.1502   24.0170 H   0  0  0  0  0  0  0  0  0  0  0  0
    7.6966   -4.0891   22.9546 H   0  0  0  0  0  0  0  0  0  0  0  0
    7.4499   -0.0829   26.5469 H   0  0  0  0  0  0  0  0  0  0  0  0
    8.5650    0.9401   27.4831 H   0  0  0  0  0  0  0  0  0  0  0  0
  1 23  1  0  0  0  0
  1 27  3  0  0  0  0
  2  3  2  0  0  0  0
  2  4  1  0  0  0  0
  3  5  1  0  0  0  0
  4 11  2  0  0  0  0
  5 12  2  0  0  0  0
  6  7  2  0  0  0  0
  6 13  1  0  0  0  0
  7 16  1  0  0  0  0
  8 14  1  0  0  0  0
  8 16  2  0  0  0  0
  9 11  1  0  0  0  0
  9 28  2  0  0  0  0
 10 15  2  0  0  0  0
 10 28  1  0  0  0  0
 11 12  1  0  0  0  0
 12 15  1  0  0  0  0
 13 14  2  0  0  0  0
 13 19  1  0  0  0  0
 14 24  1  0  0  0  0
 15 29  1  0  0  0  0
 16 37  1  0  0  0  0
 17 24  1  0  0  0  0
 17 29  1  0  0  0  0
 17 32  2  0  0  0  0
 18 29  1  0  0  0  0
 18 30  1  0  0  0  0
 18 35  2  0  0  0  0
 19 31  1  0  0  0  0
 20 21  1  0  0  0  0
 20 23  1  0  0  0  0
 21 23  1  0  0  0  0
 22 24  1  0  0  0  0
 22 31  1  0  0  0  0
 23 26  1  0  0  0  0
 24 30  1  0  0  0  0
 25 30  1  0  0  0  0
 26 36  1  0  0  0  0
 31 36  1  0  0  0  0
 33 36  2  0  0  0  0
 34 36  2  0  0  0  0
  2 38  1  0  0  0  0
  3 39  1  0  0  0  0
  4 40  1  0  0  0  0
  5 41  1  0  0  0  0
  6 42  1  0  0  0  0
  7 43  1  0  0  0  0
  8 44  1  0  0  0  0
  9 45  1  0  0  0  0
 10 46  1  0  0  0  0
 19 47  1  0  0  0  0
 19 48  1  0  0  0  0
 20 49  1  0  0  0  0
 20 50  1  0  0  0  0
 21 51  1  0  0  0  0
 21 52  1  0  0  0  0
 22 53  1  0  0  0  0
 22 54  1  0  0  0  0
 25 55  1  0  0  0  0
 25 56  1  0  0  0  0
 25 57  1  0  0  0  0
 26 58  1  0  0  0  0
 26 59  1  0  0  0  0
M  END
> <scaffold>
tetrahydroisoquinoline-5spiro-isoquinoline

> <compound>
MAT-POS-c2d406ed-4

> <compound_smiles>
CN1C(=S)N(C(=O)C12CN(Cc3c2cc(cc3)Cl)S(=O)(=O)CC4(CC4)C#N)c5cncc6c5cccc6

> <enantiomer_smiles>
CN1C(=S)N(C(=O)[C@]12C[N@@](Cc3c2cc(cc3)Cl)S(=O)(=O)CC4(CC4)C#N)c5cncc6c5cccc6

> <clash_score>
0

> <docking_score>
3.4028234663852886e+38

> <overlap_score>
1.0

> <MMFF_internal_energy>
129.06836282336477

> <docked_smiles>
CN1C(=S)N(C(=O)[C@]12C[N@](Cc3c2cc(cc3)Cl)S(=O)(=O)CC4(CC4)C#N)c5cncc6c5cccc6

$$$$
EDJ-MED-9f4ac58c-5_1
  -OEChem-01042202313D

 60 65  0     1  0  0  0  0  0999 V2000
    4.8986    1.0232   21.2985 C   0  0  0  0  0  0  0  0  0  0  0  0
   12.0781    0.0316   24.1532 C   0  0  0  0  0  0  0  0  0  0  0  0
    3.8974    1.9290   21.5048 C   0  0  0  0  0  0  0  0  0  0  0  0
   12.9147   -0.6032   23.2559 C   0  0  0  0  0  0  0  0  0  0  0  0
    3.7877    2.4205   19.1658 C   0  0  0  0  0  0  0  0  0  0  0  0
   11.0005   -1.4332   22.0435 C   0  0  0  0  0  0  0  0  0  0  0  0
    5.3288    1.2339   17.6062 C   0  0  0  0  0  0  0  0  0  0  0  0
    6.8449   -0.2893   18.3747 C   0  0  0  0  0  0  0  0  0  0  0  0
    5.3995    0.7732   19.9944 C   0  0  0  0  0  0  0  0  0  0  0  0
    4.8238    1.4906   18.9051 C   0  0  0  0  0  0  0  0  0  0  0  0
   10.7056   -0.0626   23.9890 C   0  0  0  0  0  0  0  0  0  0  0  0
   10.1421   -0.7766   22.9242 C   0  0  0  0  0  0  0  0  0  0  0  0
    6.4452   -0.1472   19.6975 C   0  0  0  0  0  0  0  0  0  0  0  0
    3.3444    2.6278   20.4409 C   0  0  0  0  0  0  0  0  0  0  0  0
   12.3697   -1.3298   22.2224 C   0  0  0  0  0  0  0  0  0  0  0  0
    9.9496    0.5589   24.9527 C   0  0  0  0  0  0  0  0  0  0  0  0
    8.2504    0.0168   21.4265 C   0  0  0  0  0  0  0  0  0  0  0  0
    5.6592    2.5893   28.4120 C   0  0  0  0  0  0  0  0  0  0  0  0
    6.7130    3.6210   28.1192 C   0  0  0  0  0  0  0  0  0  0  0  0
    8.0155   -2.1541   22.4325 C   0  0  0  0  0  0  0  0  0  0  0  0
    6.9880   -1.9367   21.3575 C   0  0  0  0  0  0  0  0  0  0  0  0
    7.8737   -0.1194   23.8825 C   0  0  0  0  0  0  0  0  0  0  0  0
    8.6253   -0.7606   22.6923 C   0  0  3  0  0  0  0  0  0  0  0  0
    6.1458    2.7877   27.0020 C   0  0  0  0  0  0  0  0  0  0  0  0
    4.0261    2.7322   25.9888 C   0  0  0  0  0  0  0  0  0  0  0  0
    6.9941    1.7268   26.3371 C   0  0  0  0  0  0  0  0  0  0  0  0
    6.3072    0.3768   17.3417 N   0  0  0  0  0  0  0  0  0  0  0  0
    7.2305   -0.6898   20.7785 N   0  0  0  0  0  0  0  0  0  0  0  0
    8.6625    1.0133   24.4989 N   0  0  0  0  0  0  0  0  0  0  0  0
   10.3166    0.7434   26.1217 O   0  0  0  0  0  0  0  0  0  0  0  0
    8.8196    1.0408   21.0766 O   0  0  0  0  0  0  0  0  0  0  0  0
    6.9311    2.7494   23.9334 O   0  0  0  0  0  0  0  0  0  0  0  0
    8.8702    3.3156   25.4517 O   0  0  0  0  0  0  0  0  0  0  0  0
    5.2370    3.4549   26.1106 O   0  0  0  0  0  0  0  0  0  0  0  0
    7.8873    2.3819   24.9522 S   0  0  0  0  0  0  0  0  0  0  0  0
    2.0806    3.7708   20.7461 Cl  0  0  0  0  0  0  0  0  0  0  0  0
   13.4293   -2.1466   21.1128 Cl  0  0  0  0  0  0  0  0  0  0  0  0
    5.3130    0.4890   22.1566 H   0  0  0  0  0  0  0  0  0  0  0  0
   12.5191    0.5957   24.9706 H   0  0  0  0  0  0  0  0  0  0  0  0
    3.5294    2.1039   22.5231 H   0  0  0  0  0  0  0  0  0  0  0  0
   13.9921   -0.5215   23.3809 H   0  0  0  0  0  0  0  0  0  0  0  0
    3.3519    2.9678   18.3252 H   0  0  0  0  0  0  0  0  0  0  0  0
   10.6170   -2.0260   21.2272 H   0  0  0  0  0  0  0  0  0  0  0  0
    4.9149    1.7517   16.7475 H   0  0  0  0  0  0  0  0  0  0  0  0
    7.6461   -0.9760   18.1040 H   0  0  0  0  0  0  0  0  0  0  0  0
    5.9648    1.6969   28.9448 H   0  0  0  0  0  0  0  0  0  0  0  0
    4.6668    2.9418   28.6662 H   0  0  0  0  0  0  0  0  0  0  0  0
    6.4263    4.6642   28.1777 H   0  0  0  0  0  0  0  0  0  0  0  0
    7.7223    3.4172   28.4560 H   0  0  0  0  0  0  0  0  0  0  0  0
    7.5124   -2.5282   23.3379 H   0  0  0  0  0  0  0  0  0  0  0  0
    8.7585   -2.9105   22.1421 H   0  0  0  0  0  0  0  0  0  0  0  0
    7.0610   -2.7257   20.5719 H   0  0  0  0  0  0  0  0  0  0  0  0
    5.9524   -1.9968   21.7699 H   0  0  0  0  0  0  0  0  0  0  0  0
    6.8990    0.2933   23.5632 H   0  0  0  0  0  0  0  0  0  0  0  0
    7.6456   -0.8834   24.6465 H   0  0  0  0  0  0  0  0  0  0  0  0
    3.3536    3.2589   25.3074 H   0  0  0  0  0  0  0  0  0  0  0  0
    3.5602    2.6318   26.9723 H   0  0  0  0  0  0  0  0  0  0  0  0
    4.2434    1.7395   25.5877 H   0  0  0  0  0  0  0  0  0  0  0  0
    6.3739    0.9078   25.9624 H   0  0  0  0  0  0  0  0  0  0  0  0
    7.7323    1.3219   27.0346 H   0  0  0  0  0  0  0  0  0  0  0  0
  1  3  2  0  0  0  0
  1  9  1  0  0  0  0
  2  4  2  0  0  0  0
  2 11  1  0  0  0  0
  3 14  1  0  0  0  0
  4 15  1  0  0  0  0
  5 10  1  0  0  0  0
  5 14  2  0  0  0  0
  6 12  1  0  0  0  0
  6 15  2  0  0  0  0
  7 10  2  0  0  0  0
  7 27  1  0  0  0  0
  8 13  1  0  0  0  0
  8 27  2  0  0  0  0
  9 10  1  0  0  0  0
  9 13  2  0  0  0  0
 11 12  2  0  0  0  0
 11 16  1  0  0  0  0
 12 23  1  0  0  0  0
 13 28  1  0  0  0  0
 14 36  1  0  0  0  0
 15 37  1  0  0  0  0
 16 29  1  0  0  0  0
 16 30  2  0  0  0  0
 17 23  1  0  0  0  0
 17 28  1  0  0  0  0
 17 31  2  0  0  0  0
 18 19  1  0  0  0  0
 18 24  1  0  0  0  0
 19 24  1  0  0  0  0
 20 21  1  0  0  0  0
 20 23  1  0  0  0  0
 21 28  1  0  0  0  0
 22 23  1  0  0  0  0
 22 29  1  0  0  0  0
 24 26  1  0  0  0  0
 24 34  1  0  0  0  0
 25 34  1  0  0  0  0
 26 35  1  0  0  0  0
 29 35  1  0  0  0  0
 32 35  2  0  0  0  0
 33 35  2  0  0  0  0
  1 38  1  0  0  0  0
  2 39  1  0  0  0  0
  3 40  1  0  0  0  0
  4 41  1  0  0  0  0
  5 42  1  0  0  0  0
  6 43  1  0  0  0  0
  7 44  1  0  0  0  0
  8 45  1  0  0  0  0
 18 46  1  0  0  0  0
 18 47  1  0  0  0  0
 19 48  1  0  0  0  0
 19 49  1  0  0  0  0
 20 50  1  0  0  0  0
 20 51  1  0  0  0  0
 21 52  1  0  0  0  0
 21 53  1  0  0  0  0
 22 54  1  0  0  0  0
 22 55  1  0  0  0  0
 25 56  1  0  0  0  0
 25 57  1  0  0  0  0
 25 58  1  0  0  0  0
 26 59  1  0  0  0  0
 26 60  1  0  0  0  0
M  END
> <scaffold>
tetrahydroisoquinoline-5spiro-isoquinoline

> <compound>
EDJ-MED-9f4ac58c-5

> <compound_smiles>
COC1(CC1)CS(=O)(=O)N2CC3(CCN(C3=O)c4cncc5c4ccc(c5)Cl)c6cc(ccc6C2=O)Cl

> <enantiomer_smiles>
COC1(CC1)CS(=O)(=O)N2C[C@]3(CCN(C3=O)c4cncc5c4ccc(c5)Cl)c6cc(ccc6C2=O)Cl

> <clash_score>
0

> <docking_score>
3.4028234663852886e+38

> <overlap_score>
0.9863870143890381

> <MMFF_internal_energy>
102.42545868784887

> <docked_smiles>
COC1(CC1)CS(=O)(=O)N2C[C@]3(CCN(C3=O)c4cncc5c4ccc(c5)Cl)c6cc(ccc6C2=O)Cl

$$$$
MAT-POS-be048f2c-6_1
  -OEChem-01042202313D

 62 67  0     1  0  0  0  0  0999 V2000
    3.3444    2.6278   20.4409 C   0  0  0  0  0  0  0  0  0  0  0  0
    3.8974    1.9290   21.5048 C   0  0  0  0  0  0  0  0  0  0  0  0
    3.7877    2.4205   19.1658 C   0  0  0  0  0  0  0  0  0  0  0  0
    4.8986    1.0232   21.2985 C   0  0  0  0  0  0  0  0  0  0  0  0
   12.0781    0.0316   24.1532 C   0  0  0  0  0  0  0  0  0  0  0  0
   12.9147   -0.6032   23.2559 C   0  0  0  0  0  0  0  0  0  0  0  0
    9.0936    3.7970   26.3391 C   0  0  0  0  0  0  0  0  0  0  0  0
   11.0005   -1.4332   22.0435 C   0  0  0  0  0  0  0  0  0  0  0  0
   10.0595    4.8198   26.2869 C   0  0  0  0  0  0  0  0  0  0  0  0
    5.3288    1.2339   17.6062 C   0  0  0  0  0  0  0  0  0  0  0  0
    6.8449   -0.2893   18.3747 C   0  0  0  0  0  0  0  0  0  0  0  0
    4.8238    1.4906   18.9051 C   0  0  0  0  0  0  0  0  0  0  0  0
    5.3995    0.7732   19.9944 C   0  0  0  0  0  0  0  0  0  0  0  0
   10.7056   -0.0626   23.9890 C   0  0  0  0  0  0  0  0  0  0  0  0
   10.1421   -0.7766   22.9242 C   0  0  0  0  0  0  0  0  0  0  0  0
    6.4452   -0.1472   19.6975 C   0  0  0  0  0  0  0  0  0  0  0  0
   12.3697   -1.3298   22.2224 C   0  0  0  0  0  0  0  0  0  0  0  0
    9.0025    3.3443   25.0456 C   0  0  0  0  0  0  0  0  0  0  0  0
    8.2504    0.0168   21.4265 C   0  0  0  0  0  0  0  0  0  0  0  0
    8.1479    2.2775   24.5039 C   0  0  0  0  0  0  0  0  0  0  0  0
    9.9496    0.5589   24.9527 C   0  0  0  0  0  0  0  0  0  0  0  0
    8.0155   -2.1541   22.4325 C   0  0  0  0  0  0  0  0  0  0  0  0
    6.9880   -1.9367   21.3575 C   0  0  0  0  0  0  0  0  0  0  0  0
    7.8737   -0.1194   23.8825 C   0  0  0  0  0  0  0  0  0  0  0  0
    8.6253   -0.7606   22.6923 C   0  0  3  0  0  0  0  0  0  0  0  0
   11.6016    3.5812   22.6305 C   0  0  0  0  0  0  0  0  0  0  0  0
    9.7812    5.2766   22.1639 C   0  0  0  0  0  0  0  0  0  0  0  0
   10.1552    3.9943   22.9097 C   0  0  0  0  0  0  0  0  0  0  0  0
    6.3072    0.3768   17.3417 N   0  0  0  0  0  0  0  0  0  0  0  0
   10.5473    5.0060   25.0576 N   0  0  0  0  0  0  0  0  0  0  0  0
    9.8853    4.0941   24.3253 N   0  0  0  0  0  0  0  0  0  0  0  0
    7.2305   -0.6898   20.7785 N   0  0  0  0  0  0  0  0  0  0  0  0
    8.6625    1.0133   24.4989 N   0  0  0  0  0  0  0  0  0  0  0  0
    8.7600    1.0855   21.1262 O   0  0  0  0  0  0  0  0  0  0  0  0
    7.0365    2.6212   24.1037 O   0  0  0  0  0  0  0  0  0  0  0  0
   13.4297   -2.1471   21.1135 Cl  0  0  0  0  0  0  0  0  0  0  0  0
    2.5443    3.3508   20.6368 H   0  0  0  0  0  0  0  0  0  0  0  0
    3.5189    2.1137   22.5166 H   0  0  0  0  0  0  0  0  0  0  0  0
    3.3421    2.9744   18.3363 H   0  0  0  0  0  0  0  0  0  0  0  0
    5.3131    0.4893   22.1569 H   0  0  0  0  0  0  0  0  0  0  0  0
   12.5054    0.5873   24.9795 H   0  0  0  0  0  0  0  0  0  0  0  0
   13.9928   -0.5292   23.3862 H   0  0  0  0  0  0  0  0  0  0  0  0
    8.5438    3.4413   27.1986 H   0  0  0  0  0  0  0  0  0  0  0  0
   10.6151   -2.0340   21.2349 H   0  0  0  0  0  0  0  0  0  0  0  0
   10.4287    5.4370   27.0934 H   0  0  0  0  0  0  0  0  0  0  0  0
    4.9151    1.7511   16.7471 H   0  0  0  0  0  0  0  0  0  0  0  0
    7.6455   -0.9765   18.1038 H   0  0  0  0  0  0  0  0  0  0  0  0
    9.7850   -0.0928   25.8506 H   0  0  0  0  0  0  0  0  0  0  0  0
   10.4594    1.4725   25.3577 H   0  0  0  0  0  0  0  0  0  0  0  0
    7.5133   -2.5697   23.3190 H   0  0  0  0  0  0  0  0  0  0  0  0
    8.7734   -2.8987   22.1394 H   0  0  0  0  0  0  0  0  0  0  0  0
    7.0532   -2.7254   20.5703 H   0  0  0  0  0  0  0  0  0  0  0  0
    5.9526   -1.9949   21.7726 H   0  0  0  0  0  0  0  0  0  0  0  0
    6.9275    0.3346   23.5578 H   0  0  0  0  0  0  0  0  0  0  0  0
    7.6195   -0.8485   24.6559 H   0  0  0  0  0  0  0  0  0  0  0  0
   12.3167    4.3302   22.9871 H   0  0  0  0  0  0  0  0  0  0  0  0
   11.7637    3.4518   21.5551 H   0  0  0  0  0  0  0  0  0  0  0  0
   11.8386    2.6320   23.1238 H   0  0  0  0  0  0  0  0  0  0  0  0
   10.3933    6.1190   22.5046 H   0  0  0  0  0  0  0  0  0  0  0  0
    8.7304    5.5308   22.3393 H   0  0  0  0  0  0  0  0  0  0  0  0
    9.9236    5.1769   21.0825 H   0  0  0  0  0  0  0  0  0  0  0  0
    9.5096    3.1949   22.5237 H   0  0  0  0  0  0  0  0  0  0  0  0
  1  2  2  0  0  0  0
  1  3  1  0  0  0  0
  2  4  1  0  0  0  0
  3 12  2  0  0  0  0
  4 13  2  0  0  0  0
  5  6  2  0  0  0  0
  5 14  1  0  0  0  0
  6 17  1  0  0  0  0
  7  9  1  0  0  0  0
  7 18  2  0  0  0  0
  8 15  1  0  0  0  0
  8 17  2  0  0  0  0
  9 30  2  0  0  0  0
 10 12  1  0  0  0  0
 10 29  2  0  0  0  0
 11 16  2  0  0  0  0
 11 29  1  0  0  0  0
 12 13  1  0  0  0  0
 13 16  1  0  0  0  0
 14 15  2  0  0  0  0
 14 21  1  0  0  0  0
 15 25  1  0  0  0  0
 16 32  1  0  0  0  0
 17 36  1  0  0  0  0
 18 20  1  0  0  0  0
 18 31  1  0  0  0  0
 19 25  1  0  0  0  0
 19 32  1  0  0  0  0
 19 34  2  0  0  0  0
 20 33  1  0  0  0  0
 20 35  2  0  0  0  0
 21 33  1  0  0  0  0
 22 23  1  0  0  0  0
 22 25  1  0  0  0  0
 23 32  1  0  0  0  0
 24 25  1  0  0  0  0
 24 33  1  0  0  0  0
 26 28  1  0  0  0  0
 27 28  1  0  0  0  0
 28 31  1  0  0  0  0
 30 31  1  0  0  0  0
  1 37  1  0  0  0  0
  2 38  1  0  0  0  0
  3 39  1  0  0  0  0
  4 40  1  0  0  0  0
  5 41  1  0  0  0  0
  6 42  1  0  0  0  0
  7 43  1  0  0  0  0
  8 44  1  0  0  0  0
  9 45  1  0  0  0  0
 10 46  1  0  0  0  0
 11 47  1  0  0  0  0
 21 48  1  0  0  0  0
 21 49  1  0  0  0  0
 22 50  1  0  0  0  0
 22 51  1  0  0  0  0
 23 52  1  0  0  0  0
 23 53  1  0  0  0  0
 24 54  1  0  0  0  0
 24 55  1  0  0  0  0
 26 56  1  0  0  0  0
 26 57  1  0  0  0  0
 26 58  1  0  0  0  0
 27 59  1  0  0  0  0
 27 60  1  0  0  0  0
 27 61  1  0  0  0  0
 28 62  1  0  0  0  0
M  END
> <scaffold>
tetrahydroisoquinoline-5spiro-isoquinoline

> <compound>
MAT-POS-be048f2c-6

> <compound_smiles>
CC(C)n1c(ccn1)C(=O)N2Cc3ccc(cc3C4(C2)CCN(C4=O)c5cncc6c5cccc6)Cl

> <enantiomer_smiles>
CC(C)n1c(ccn1)C(=O)N2Cc3ccc(cc3[C@@]4(C2)CCN(C4=O)c5cncc6c5cccc6)Cl

> <clash_score>
1.9310642189238347

> <docking_score>
3.4028234663852886e+38

> <overlap_score>
0.9712498188018799

> <MMFF_internal_energy>
122.1555724540748

> <docked_smiles>
CC(C)n1c(ccn1)C(=O)N2Cc3ccc(cc3[C@@]4(C2)CCN(C4=O)c5cncc6c5cccc6)Cl

$$$$
MAT-POS-50a80394-2_1
  -OEChem-01042202313D

 64 69  0     1  0  0  0  0  0999 V2000
    6.5981    2.6643   28.4290 C   0  0  0  0  0  0  0  0  0  0  0  0
    3.3444    2.6278   20.4409 C   0  0  0  0  0  0  0  0  0  0  0  0
    3.8974    1.9290   21.5048 C   0  0  0  0  0  0  0  0  0  0  0  0
    3.7877    2.4205   19.1658 C   0  0  0  0  0  0  0  0  0  0  0  0
    4.8986    1.0232   21.2985 C   0  0  0  0  0  0  0  0  0  0  0  0
   12.0781    0.0316   24.1532 C   0  0  0  0  0  0  0  0  0  0  0  0
   12.9147   -0.6032   23.2559 C   0  0  0  0  0  0  0  0  0  0  0  0
   11.0005   -1.4332   22.0435 C   0  0  0  0  0  0  0  0  0  0  0  0
    5.3288    1.2339   17.6062 C   0  0  0  0  0  0  0  0  0  0  0  0
    6.8449   -0.2893   18.3747 C   0  0  0  0  0  0  0  0  0  0  0  0
    4.8238    1.4906   18.9051 C   0  0  0  0  0  0  0  0  0  0  0  0
    5.3995    0.7732   19.9944 C   0  0  0  0  0  0  0  0  0  0  0  0
   10.7056   -0.0626   23.9890 C   0  0  0  0  0  0  0  0  0  0  0  0
   10.1421   -0.7766   22.9242 C   0  0  0  0  0  0  0  0  0  0  0  0
    6.4452   -0.1472   19.6975 C   0  0  0  0  0  0  0  0  0  0  0  0
   12.3697   -1.3298   22.2224 C   0  0  0  0  0  0  0  0  0  0  0  0
    8.2504    0.0168   21.4265 C   0  0  0  0  0  0  0  0  0  0  0  0
    9.9496    0.5589   24.9527 C   0  0  0  0  0  0  0  0  0  0  0  0
    5.8066    0.2855   28.6946 C   0  0  0  0  0  0  0  0  0  0  0  0
    5.0836    0.8676   27.5160 C   0  0  0  0  0  0  0  0  0  0  0  0
    6.9880   -1.9367   21.3575 C   0  0  0  0  0  0  0  0  0  0  0  0
    7.8737   -0.1194   23.8825 C   0  0  0  0  0  0  0  0  0  0  0  0
    8.0155   -2.1541   22.4325 C   0  0  2  0  0  0  0  0  0  0  0  0
    6.4766    1.3495   27.8544 C   0  0  0  0  0  0  0  0  0  0  0  0
    8.6253   -0.7606   22.6923 C   0  0  3  0  0  0  0  0  0  0  0  0
    8.2749   -4.5633   21.7967 C   0  0  0  0  0  0  0  0  0  0  0  0
    8.9923   -3.2811   22.0739 C   0  0  0  0  0  0  0  0  0  0  0  0
    7.6141    0.9308   26.9500 C   0  0  0  0  0  0  0  0  0  0  0  0
    6.6960    3.7237   28.8920 N   0  0  0  0  0  0  0  0  0  0  0  0
    6.3072    0.3768   17.3417 N   0  0  0  0  0  0  0  0  0  0  0  0
    7.2305   -0.6898   20.7785 N   0  0  0  0  0  0  0  0  0  0  0  0
    8.6625    1.0133   24.4989 N   0  0  3  0  0  0  0  0  0  0  0  0
    8.8294    1.0393   21.0745 O   0  0  0  0  0  0  0  0  0  0  0  0
    6.4539    2.2392   25.0085 O   0  0  0  0  0  0  0  0  0  0  0  0
    8.6270    3.1216   25.9491 O   0  0  0  0  0  0  0  0  0  0  0  0
    7.7740    2.0203   25.5587 S   0  0  0  0  0  0  0  0  0  0  0  0
   13.4285   -2.1429   21.1090 Cl  0  0  0  0  0  0  0  0  0  0  0  0
    2.5443    3.3508   20.6368 H   0  0  0  0  0  0  0  0  0  0  0  0
    3.5189    2.1137   22.5166 H   0  0  0  0  0  0  0  0  0  0  0  0
    3.3421    2.9744   18.3363 H   0  0  0  0  0  0  0  0  0  0  0  0
    5.3131    0.4893   22.1569 H   0  0  0  0  0  0  0  0  0  0  0  0
   12.5041    0.5971   24.9736 H   0  0  0  0  0  0  0  0  0  0  0  0
   13.9927   -0.5197   23.3794 H   0  0  0  0  0  0  0  0  0  0  0  0
   10.6063   -2.0193   21.2257 H   0  0  0  0  0  0  0  0  0  0  0  0
    4.9151    1.7511   16.7471 H   0  0  0  0  0  0  0  0  0  0  0  0
    7.6455   -0.9765   18.1038 H   0  0  0  0  0  0  0  0  0  0  0  0
    9.7880   -0.1167   25.8329 H   0  0  0  0  0  0  0  0  0  0  0  0
   10.4812    1.4583   25.3585 H   0  0  0  0  0  0  0  0  0  0  0  0
    5.4464    0.5462   29.6834 H   0  0  0  0  0  0  0  0  0  0  0  0
    6.1585   -0.7365   28.6140 H   0  0  0  0  0  0  0  0  0  0  0  0
    4.9504    0.2349   26.6461 H   0  0  0  0  0  0  0  0  0  0  0  0
    4.2390    1.5171   27.7166 H   0  0  0  0  0  0  0  0  0  0  0  0
    7.0389   -2.7205   20.5617 H   0  0  0  0  0  0  0  0  0  0  0  0
    5.9511   -1.9856   21.7738 H   0  0  0  0  0  0  0  0  0  0  0  0
    6.8894    0.2591   23.5682 H   0  0  0  0  0  0  0  0  0  0  0  0
    7.6784   -0.8601   24.6765 H   0  0  0  0  0  0  0  0  0  0  0  0
    7.4786   -2.4985   23.3380 H   0  0  0  0  0  0  0  0  0  0  0  0
    7.6963   -4.8622   22.6786 H   0  0  0  0  0  0  0  0  0  0  0  0
    8.9848   -5.3654   21.5686 H   0  0  0  0  0  0  0  0  0  0  0  0
    7.5803   -4.4472   20.9580 H   0  0  0  0  0  0  0  0  0  0  0  0
    9.5679   -2.9879   21.1903 H   0  0  0  0  0  0  0  0  0  0  0  0
    9.7016   -3.4311   22.8939 H   0  0  0  0  0  0  0  0  0  0  0  0
    7.4495   -0.0753   26.5543 H   0  0  0  0  0  0  0  0  0  0  0  0
    8.5672    0.9495   27.4854 H   0  0  0  0  0  0  0  0  0  0  0  0
  1 24  1  0  0  0  0
  1 29  3  0  0  0  0
  2  3  2  0  0  0  0
  2  4  1  0  0  0  0
  3  5  1  0  0  0  0
  4 11  2  0  0  0  0
  5 12  2  0  0  0  0
  6  7  2  0  0  0  0
  6 13  1  0  0  0  0
  7 16  1  0  0  0  0
  8 14  1  0  0  0  0
  8 16  2  0  0  0  0
  9 11  1  0  0  0  0
  9 30  2  0  0  0  0
 10 15  2  0  0  0  0
 10 30  1  0  0  0  0
 11 12  1  0  0  0  0
 12 15  1  0  0  0  0
 13 14  2  0  0  0  0
 13 18  1  0  0  0  0
 14 25  1  0  0  0  0
 15 31  1  0  0  0  0
 16 37  1  0  0  0  0
 17 25  1  0  0  0  0
 17 31  1  0  0  0  0
 17 33  2  0  0  0  0
 18 32  1  0  0  0  0
 19 20  1  0  0  0  0
 19 24  1  0  0  0  0
 20 24  1  0  0  0  0
 21 23  1  0  0  0  0
 21 31  1  0  0  0  0
 22 25  1  0  0  0  0
 22 32  1  0  0  0  0
 23 25  1  0  0  0  0
 23 27  1  1  0  0  0
 24 28  1  0  0  0  0
 26 27  1  0  0  0  0
 28 36  1  0  0  0  0
 32 36  1  0  0  0  0
 34 36  2  0  0  0  0
 35 36  2  0  0  0  0
  2 38  1  0  0  0  0
  3 39  1  0  0  0  0
  4 40  1  0  0  0  0
  5 41  1  0  0  0  0
  6 42  1  0  0  0  0
  7 43  1  0  0  0  0
  8 44  1  0  0  0  0
  9 45  1  0  0  0  0
 10 46  1  0  0  0  0
 18 47  1  0  0  0  0
 18 48  1  0  0  0  0
 19 49  1  0  0  0  0
 19 50  1  0  0  0  0
 20 51  1  0  0  0  0
 20 52  1  0  0  0  0
 21 53  1  0  0  0  0
 21 54  1  0  0  0  0
 22 55  1  0  0  0  0
 22 56  1  0  0  0  0
 23 57  1  0  0  0  0
 26 58  1  0  0  0  0
 26 59  1  0  0  0  0
 26 60  1  0  0  0  0
 27 61  1  0  0  0  0
 27 62  1  0  0  0  0
 28 63  1  0  0  0  0
 28 64  1  0  0  0  0
M  END
> <scaffold>
tetrahydroisoquinoline-5spiro-isoquinoline

> <compound>
MAT-POS-50a80394-2

> <compound_smiles>
CCC1CN(C(=O)C12CN(Cc3c2cc(cc3)Cl)S(=O)(=O)CC4(CC4)C#N)c5cncc6c5cccc6

> <enantiomer_smiles>
CC[C@@H]1CN(C(=O)[C@]12C[N@](Cc3c2cc(cc3)Cl)S(=O)(=O)CC4(CC4)C#N)c5cncc6c5cccc6

> <clash_score>
0

> <docking_score>
3.4028234663852886e+38

> <overlap_score>
0.9789245128631592

> <MMFF_internal_energy>
151.02325525885558

> <docked_smiles>
CC[C@@H]1CN(C(=O)[C@]12C[N@](Cc3c2cc(cc3)Cl)S(=O)(=O)CC4(CC4)C#N)c5cncc6c5cccc6

$$$$
LUO-POS-eaf50f21-1_1
  -OEChem-01042202313D

 58 63  0     1  0  0  0  0  0999 V2000
    9.3387    5.5690   24.0147 C   0  0  0  0  0  0  0  0  0  0  0  0
    3.3444    2.6278   20.4409 C   0  0  0  0  0  0  0  0  0  0  0  0
    3.8974    1.9290   21.5048 C   0  0  0  0  0  0  0  0  0  0  0  0
    3.7877    2.4205   19.1658 C   0  0  0  0  0  0  0  0  0  0  0  0
    4.8986    1.0232   21.2985 C   0  0  0  0  0  0  0  0  0  0  0  0
   12.0781    0.0316   24.1532 C   0  0  0  0  0  0  0  0  0  0  0  0
   12.9147   -0.6032   23.2559 C   0  0  0  0  0  0  0  0  0  0  0  0
   11.0005   -1.4332   22.0435 C   0  0  0  0  0  0  0  0  0  0  0  0
    5.3288    1.2339   17.6062 C   0  0  0  0  0  0  0  0  0  0  0  0
    6.8449   -0.2893   18.3747 C   0  0  0  0  0  0  0  0  0  0  0  0
    4.8238    1.4906   18.9051 C   0  0  0  0  0  0  0  0  0  0  0  0
    5.3995    0.7732   19.9944 C   0  0  0  0  0  0  0  0  0  0  0  0
   10.7056   -0.0626   23.9890 C   0  0  0  0  0  0  0  0  0  0  0  0
   10.1421   -0.7766   22.9242 C   0  0  0  0  0  0  0  0  0  0  0  0
    6.4452   -0.1472   19.6975 C   0  0  0  0  0  0  0  0  0  0  0  0
   12.3697   -1.3298   22.2224 C   0  0  0  0  0  0  0  0  0  0  0  0
    8.2504    0.0168   21.4265 C   0  0  0  0  0  0  0  0  0  0  0  0
    6.9880   -1.9367   21.3575 C   0  0  0  0  0  0  0  0  0  0  0  0
    9.9496    0.5589   24.9527 C   0  0  0  0  0  0  0  0  0  0  0  0
    7.3836    5.9465   25.5610 C   0  0  0  0  0  0  0  0  0  0  0  0
    6.8278    5.5195   24.2346 C   0  0  0  0  0  0  0  0  0  0  0  0
    7.8737   -0.1194   23.8825 C   0  0  0  0  0  0  0  0  0  0  0  0
    8.1844    5.0177   24.6762 C   0  0  0  0  0  0  0  0  0  0  0  0
    8.6253   -0.7606   22.6923 C   0  0  3  0  0  0  0  0  0  0  0  0
    8.3070    3.5687   25.0915 C   0  0  0  0  0  0  0  0  0  0  0  0
   10.2687    6.0132   23.4819 N   0  0  0  0  0  0  0  0  0  0  0  0
    6.3072    0.3768   17.3417 N   0  0  0  0  0  0  0  0  0  0  0  0
    7.2305   -0.6898   20.7785 N   0  0  0  0  0  0  0  0  0  0  0  0
    8.6625    1.0133   24.4989 N   0  0  3  0  0  0  0  0  0  0  0  0
    8.0155   -2.1541   22.4325 N   0  3  0  0  0  0  0  0  0  0  0  0
    6.0219   -2.8434   21.1379 N   0  0  0  0  0  0  0  0  0  0  0  0
    8.7970    1.0627   21.0518 O   0  0  0  0  0  0  0  0  0  0  0  0
    7.3879    2.5517   22.8671 O   0  0  0  0  0  0  0  0  0  0  0  0
    9.8856    2.8059   23.1539 O   0  0  0  0  0  0  0  0  0  0  0  0
    8.5755    2.5113   23.6922 S   0  0  0  0  0  0  0  0  0  0  0  0
   13.4280   -2.1428   21.1085 Cl  0  0  0  0  0  0  0  0  0  0  0  0
    2.5446    3.3512   20.6368 H   0  0  0  0  0  0  0  0  0  0  0  0
    3.5197    2.1139   22.5168 H   0  0  0  0  0  0  0  0  0  0  0  0
    3.3421    2.9744   18.3362 H   0  0  0  0  0  0  0  0  0  0  0  0
    5.3160    0.4868   22.1541 H   0  0  0  0  0  0  0  0  0  0  0  0
   12.5038    0.5927   24.9777 H   0  0  0  0  0  0  0  0  0  0  0  0
   13.9924   -0.5219   23.3813 H   0  0  0  0  0  0  0  0  0  0  0  0
   10.6048   -2.0225   21.2271 H   0  0  0  0  0  0  0  0  0  0  0  0
    4.9145    1.7511   16.7473 H   0  0  0  0  0  0  0  0  0  0  0  0
    7.6462   -0.9771   18.1096 H   0  0  0  0  0  0  0  0  0  0  0  0
    9.7613   -0.1285   25.8164 H   0  0  0  0  0  0  0  0  0  0  0  0
   10.4948    1.4393   25.3810 H   0  0  0  0  0  0  0  0  0  0  0  0
    7.7011    6.9781   25.6637 H   0  0  0  0  0  0  0  0  0  0  0  0
    6.9214    5.5414   26.4538 H   0  0  0  0  0  0  0  0  0  0  0  0
    5.9924    4.8288   24.2391 H   0  0  0  0  0  0  0  0  0  0  0  0
    6.7726    6.2658   23.4503 H   0  0  0  0  0  0  0  0  0  0  0  0
    6.8949    0.2715   23.5586 H   0  0  0  0  0  0  0  0  0  0  0  0
    7.6743   -0.8813   24.6531 H   0  0  0  0  0  0  0  0  0  0  0  0
    7.3940    3.2245   25.5851 H   0  0  0  0  0  0  0  0  0  0  0  0
    9.1522    3.4262   25.7702 H   0  0  0  0  0  0  0  0  0  0  0  0
    8.2030   -2.9872   22.8301 H   0  0  0  0  0  0  0  0  0  0  0  0
    5.3477   -2.6173   20.4447 H   0  0  0  0  0  0  0  0  0  0  0  0
    6.0116   -3.6888   21.6587 H   0  0  0  0  0  0  0  0  0  0  0  0
  1 23  1  0  0  0  0
  1 26  3  0  0  0  0
  2  3  2  0  0  0  0
  2  4  1  0  0  0  0
  3  5  1  0  0  0  0
  4 11  2  0  0  0  0
  5 12  2  0  0  0  0
  6  7  2  0  0  0  0
  6 13  1  0  0  0  0
  7 16  1  0  0  0  0
  8 14  1  0  0  0  0
  8 16  2  0  0  0  0
  9 11  1  0  0  0  0
  9 27  2  0  0  0  0
 10 15  2  0  0  0  0
 10 27  1  0  0  0  0
 11 12  1  0  0  0  0
 12 15  1  0  0  0  0
 13 14  2  0  0  0  0
 13 19  1  0  0  0  0
 14 24  1  0  0  0  0
 15 28  1  0  0  0  0
 16 36  1  0  0  0  0
 17 24  1  0  0  0  0
 17 28  1  0  0  0  0
 17 32  2  0  0  0  0
 18 28  1  0  0  0  0
 18 30  2  0  0  0  0
 18 31  1  0  0  0  0
 19 29  1  0  0  0  0
 20 21  1  0  0  0  0
 20 23  1  0  0  0  0
 21 23  1  0  0  0  0
 22 24  1  0  0  0  0
 22 29  1  0  0  0  0
 23 25  1  0  0  0  0
 24 30  1  0  0  0  0
 25 35  1  0  0  0  0
 29 35  1  0  0  0  0
 33 35  2  0  0  0  0
 34 35  2  0  0  0  0
  2 37  1  0  0  0  0
  3 38  1  0  0  0  0
  4 39  1  0  0  0  0
  5 40  1  0  0  0  0
  6 41  1  0  0  0  0
  7 42  1  0  0  0  0
  8 43  1  0  0  0  0
  9 44  1  0  0  0  0
 10 45  1  0  0  0  0
 19 46  1  0  0  0  0
 19 47  1  0  0  0  0
 20 48  1  0  0  0  0
 20 49  1  0  0  0  0
 21 50  1  0  0  0  0
 21 51  1  0  0  0  0
 22 52  1  0  0  0  0
 22 53  1  0  0  0  0
 25 54  1  0  0  0  0
 25 55  1  0  0  0  0
 30 56  1  0  0  0  0
 31 57  1  0  0  0  0
 31 58  1  0  0  0  0
M  CHG  1  30   1
M  END
> <scaffold>
tetrahydroisoquinoline-5spiro-isoquinoline

> <compound>
LUO-POS-eaf50f21-1

> <compound_smiles>
c1ccc2c(c1)cncc2N3C(=O)C4(CN(Cc5c4cc(cc5)Cl)S(=O)(=O)CC6(CC6)C#N)N=C3N

> <enantiomer_smiles>
c1ccc2c(c1)cncc2N3C(=O)[C@]4(C[N@@](Cc5c4cc(cc5)Cl)S(=O)(=O)CC6(CC6)C#N)N=C3N

> <clash_score>
0

> <docking_score>
3.4028234663852886e+38

> <overlap_score>
1.0

> <MMFF_internal_energy>
15.947617050617023

> <docked_smiles>
c1ccc2c(c1)cncc2N3C(=O)[C@]4(C[N@@](Cc5c4cc(cc5)Cl)S(=O)(=O)CC6(CC6)C#N)[NH+]=C3N

$$$$
MAT-POS-853c0ffa-8_1
  -OEChem-01042202313D

 61 66  0     1  0  0  0  0  0999 V2000
   12.0781    0.0316   24.1532 C   0  0  0  0  0  0  0  0  0  0  0  0
   12.9147   -0.6032   23.2559 C   0  0  0  0  0  0  0  0  0  0  0  0
    3.7877    2.4205   19.1658 C   0  0  0  0  0  0  0  0  0  0  0  0
   11.0005   -1.4332   22.0435 C   0  0  0  0  0  0  0  0  0  0  0  0
    3.8974    1.9290   21.5048 C   0  0  0  0  0  0  0  0  0  0  0  0
    5.3288    1.2339   17.6062 C   0  0  0  0  0  0  0  0  0  0  0  0
    6.8449   -0.2893   18.3747 C   0  0  0  0  0  0  0  0  0  0  0  0
    4.8238    1.4906   18.9051 C   0  0  0  0  0  0  0  0  0  0  0  0
    5.3995    0.7732   19.9944 C   0  0  0  0  0  0  0  0  0  0  0  0
   10.7056   -0.0626   23.9890 C   0  0  0  0  0  0  0  0  0  0  0  0
   10.1421   -0.7766   22.9242 C   0  0  0  0  0  0  0  0  0  0  0  0
    6.4452   -0.1472   19.6975 C   0  0  0  0  0  0  0  0  0  0  0  0
    3.3444    2.6278   20.4409 C   0  0  0  0  0  0  0  0  0  0  0  0
   12.3697   -1.3298   22.2224 C   0  0  0  0  0  0  0  0  0  0  0  0
    4.8986    1.0232   21.2985 C   0  0  0  0  0  0  0  0  0  0  0  0
    8.2504    0.0168   21.4265 C   0  0  0  0  0  0  0  0  0  0  0  0
    9.9496    0.5589   24.9527 C   0  0  0  0  0  0  0  0  0  0  0  0
    6.9477    1.0432   29.4808 C   0  0  0  0  0  0  0  0  0  0  0  0
    7.5627    2.3715   29.1372 C   0  0  0  0  0  0  0  0  0  0  0  0
    8.0155   -2.1541   22.4325 C   0  0  0  0  0  0  0  0  0  0  0  0
    6.9880   -1.9367   21.3575 C   0  0  0  0  0  0  0  0  0  0  0  0
    7.8737   -0.1194   23.8825 C   0  0  0  0  0  0  0  0  0  0  0  0
    8.6253   -0.7606   22.6923 C   0  0  3  0  0  0  0  0  0  0  0  0
    6.8379    1.5828   28.0804 C   0  0  0  0  0  0  0  0  0  0  0  0
    4.6832    1.0113   27.3367 C   0  0  0  0  0  0  0  0  0  0  0  0
    7.6088    0.9304   26.9546 C   0  0  0  0  0  0  0  0  0  0  0  0
    6.3072    0.3768   17.3417 N   0  0  0  0  0  0  0  0  0  0  0  0
    7.2305   -0.6898   20.7785 N   0  0  0  0  0  0  0  0  0  0  0  0
    8.6625    1.0133   24.4989 N   0  0  3  0  0  0  0  0  0  0  0  0
    8.8314    1.0394   21.0790 O   0  0  0  0  0  0  0  0  0  0  0  0
    6.4559    2.2241   24.9990 O   0  0  0  0  0  0  0  0  0  0  0  0
    8.6119    3.1278   25.9583 O   0  0  0  0  0  0  0  0  0  0  0  0
    5.5439    2.0759   27.6956 O   0  0  0  0  0  0  0  0  0  0  0  0
    2.3589    3.5182   20.6800 F   0  0  0  0  0  0  0  0  0  0  0  0
    7.7725    2.0180   25.5623 S   0  0  0  0  0  0  0  0  0  0  0  0
   13.4285   -2.1410   21.1076 Cl  0  0  0  0  0  0  0  0  0  0  0  0
    5.4655    0.2476   22.7519 Cl  0  0  0  0  0  0  0  0  0  0  0  0
   12.5038    0.5986   24.9731 H   0  0  0  0  0  0  0  0  0  0  0  0
   13.9925   -0.5165   23.3773 H   0  0  0  0  0  0  0  0  0  0  0  0
    3.3411    2.9749   18.3372 H   0  0  0  0  0  0  0  0  0  0  0  0
   10.6052   -2.0169   21.2237 H   0  0  0  0  0  0  0  0  0  0  0  0
    3.4997    2.1315   22.5075 H   0  0  0  0  0  0  0  0  0  0  0  0
    4.9146    1.7513   16.7474 H   0  0  0  0  0  0  0  0  0  0  0  0
    7.6468   -0.9738   18.1001 H   0  0  0  0  0  0  0  0  0  0  0  0
    9.7866   -0.1187   25.8304 H   0  0  0  0  0  0  0  0  0  0  0  0
   10.4816    1.4567   25.3600 H   0  0  0  0  0  0  0  0  0  0  0  0
    7.6181    0.2123   29.6648 H   0  0  0  0  0  0  0  0  0  0  0  0
    6.0602    1.0451   30.1019 H   0  0  0  0  0  0  0  0  0  0  0  0
    7.0870    3.2628   29.5287 H   0  0  0  0  0  0  0  0  0  0  0  0
    8.6436    2.4274   29.0913 H   0  0  0  0  0  0  0  0  0  0  0  0
    7.5167   -2.5459   23.3332 H   0  0  0  0  0  0  0  0  0  0  0  0
    8.7666   -2.9029   22.1426 H   0  0  0  0  0  0  0  0  0  0  0  0
    7.0601   -2.7250   20.5715 H   0  0  0  0  0  0  0  0  0  0  0  0
    5.9530   -1.9963   21.7709 H   0  0  0  0  0  0  0  0  0  0  0  0
    6.8882    0.2643   23.5640 H   0  0  0  0  0  0  0  0  0  0  0  0
    7.6667   -0.8657   24.6729 H   0  0  0  0  0  0  0  0  0  0  0  0
    3.7079    1.4114   27.0488 H   0  0  0  0  0  0  0  0  0  0  0  0
    4.5735    0.3289   28.1833 H   0  0  0  0  0  0  0  0  0  0  0  0
    5.1175    0.4727   26.4911 H   0  0  0  0  0  0  0  0  0  0  0  0
    7.0989    0.0296   26.6018 H   0  0  0  0  0  0  0  0  0  0  0  0
    8.6192    0.6630   27.2756 H   0  0  0  0  0  0  0  0  0  0  0  0
  1  2  2  0  0  0  0
  1 10  1  0  0  0  0
  2 14  1  0  0  0  0
  3  8  2  0  0  0  0
  3 13  1  0  0  0  0
  4 11  1  0  0  0  0
  4 14  2  0  0  0  0
  5 13  2  0  0  0  0
  5 15  1  0  0  0  0
  6  8  1  0  0  0  0
  6 27  2  0  0  0  0
  7 12  2  0  0  0  0
  7 27  1  0  0  0  0
  8  9  1  0  0  0  0
  9 12  1  0  0  0  0
  9 15  2  0  0  0  0
 10 11  2  0  0  0  0
 10 17  1  0  0  0  0
 11 23  1  0  0  0  0
 12 28  1  0  0  0  0
 13 34  1  0  0  0  0
 14 36  1  0  0  0  0
 15 37  1  0  0  0  0
 16 23  1  0  0  0  0
 16 28  1  0  0  0  0
 16 30  2  0  0  0  0
 17 29  1  0  0  0  0
 18 19  1  0  0  0  0
 18 24  1  0  0  0  0
 19 24  1  0  0  0  0
 20 21  1  0  0  0  0
 20 23  1  0  0  0  0
 21 28  1  0  0  0  0
 22 23  1  0  0  0  0
 22 29  1  0  0  0  0
 24 26  1  0  0  0  0
 24 33  1  0  0  0  0
 25 33  1  0  0  0  0
 26 35  1  0  0  0  0
 29 35  1  0  0  0  0
 31 35  2  0  0  0  0
 32 35  2  0  0  0  0
  1 38  1  0  0  0  0
  2 39  1  0  0  0  0
  3 40  1  0  0  0  0
  4 41  1  0  0  0  0
  5 42  1  0  0  0  0
  6 43  1  0  0  0  0
  7 44  1  0  0  0  0
 17 45  1  0  0  0  0
 17 46  1  0  0  0  0
 18 47  1  0  0  0  0
 18 48  1  0  0  0  0
 19 49  1  0  0  0  0
 19 50  1  0  0  0  0
 20 51  1  0  0  0  0
 20 52  1  0  0  0  0
 21 53  1  0  0  0  0
 21 54  1  0  0  0  0
 22 55  1  0  0  0  0
 22 56  1  0  0  0  0
 25 57  1  0  0  0  0
 25 58  1  0  0  0  0
 25 59  1  0  0  0  0
 26 60  1  0  0  0  0
 26 61  1  0  0  0  0
M  END
> <scaffold>
tetrahydroisoquinoline-5spiro-isoquinoline

> <compound>
MAT-POS-853c0ffa-8

> <compound_smiles>
COC1(CC1)CS(=O)(=O)N2Cc3ccc(cc3C4(C2)CCN(C4=O)c5cncc6c5c(cc(c6)F)Cl)Cl

> <enantiomer_smiles>
COC1(CC1)CS(=O)(=O)[N@]2Cc3ccc(cc3[C@@]4(C2)CCN(C4=O)c5cncc6c5c(cc(c6)F)Cl)Cl

> <clash_score>
0

> <docking_score>
3.4028234663852886e+38

> <overlap_score>
0.9863176941871643

> <MMFF_internal_energy>
194.51177177257318

> <docked_smiles>
COC1(CC1)CS(=O)(=O)[N@]2Cc3ccc(cc3[C@@]4(C2)CCN(C4=O)c5cncc6c5c(cc(c6)F)Cl)Cl

$$$$
ALP-POS-ecbed2ba-15_1
  -OEChem-01042202313D

 64 69  0     1  0  0  0  0  0999 V2000
    7.5535    2.7924   28.5416 C   0  0  0  0  0  0  0  0  0  0  0  0
    3.3444    2.6278   20.4409 C   0  0  0  0  0  0  0  0  0  0  0  0
    3.8974    1.9290   21.5048 C   0  0  0  0  0  0  0  0  0  0  0  0
    3.7877    2.4205   19.1658 C   0  0  0  0  0  0  0  0  0  0  0  0
    4.8986    1.0232   21.2985 C   0  0  0  0  0  0  0  0  0  0  0  0
   12.0781    0.0316   24.1532 C   0  0  0  0  0  0  0  0  0  0  0  0
   12.9147   -0.6032   23.2559 C   0  0  0  0  0  0  0  0  0  0  0  0
   11.0005   -1.4332   22.0435 C   0  0  0  0  0  0  0  0  0  0  0  0
    5.3288    1.2339   17.6062 C   0  0  0  0  0  0  0  0  0  0  0  0
    6.8449   -0.2893   18.3747 C   0  0  0  0  0  0  0  0  0  0  0  0
    4.8238    1.4906   18.9051 C   0  0  0  0  0  0  0  0  0  0  0  0
    5.3995    0.7732   19.9944 C   0  0  0  0  0  0  0  0  0  0  0  0
   10.7056   -0.0626   23.9890 C   0  0  0  0  0  0  0  0  0  0  0  0
   10.1421   -0.7766   22.9242 C   0  0  0  0  0  0  0  0  0  0  0  0
    6.4452   -0.1472   19.6975 C   0  0  0  0  0  0  0  0  0  0  0  0
   12.3697   -1.3298   22.2224 C   0  0  0  0  0  0  0  0  0  0  0  0
    8.2504    0.0168   21.4265 C   0  0  0  0  0  0  0  0  0  0  0  0
    9.9496    0.5589   24.9527 C   0  0  0  0  0  0  0  0  0  0  0  0
    5.3981    1.1752   30.0102 C   0  0  0  0  0  0  0  0  0  0  0  0
    4.6200    2.0142   28.9968 C   0  0  0  0  0  0  0  0  0  0  0  0
    6.6077    0.6157   29.2614 C   0  0  0  0  0  0  0  0  0  0  0  0
    5.3954    1.9230   27.6826 C   0  0  0  0  0  0  0  0  0  0  0  0
    8.0155   -2.1541   22.4325 C   0  0  0  0  0  0  0  0  0  0  0  0
    6.9880   -1.9367   21.3575 C   0  0  0  0  0  0  0  0  0  0  0  0
    7.8737   -0.1194   23.8825 C   0  0  0  0  0  0  0  0  0  0  0  0
    6.8333    1.5816   28.0919 C   0  0  0  0  0  0  0  0  0  0  0  0
    8.6253   -0.7606   22.6923 C   0  0  3  0  0  0  0  0  0  0  0  0
    7.6116    0.9264   26.9519 C   0  0  0  0  0  0  0  0  0  0  0  0
    8.1184    3.7423   28.8944 N   0  0  0  0  0  0  0  0  0  0  0  0
    6.3072    0.3768   17.3417 N   0  0  0  0  0  0  0  0  0  0  0  0
    7.2305   -0.6898   20.7785 N   0  0  0  0  0  0  0  0  0  0  0  0
    8.6625    1.0133   24.4989 N   0  0  3  0  0  0  0  0  0  0  0  0
    8.8314    1.0394   21.0790 O   0  0  0  0  0  0  0  0  0  0  0  0
    6.4564    2.2158   24.9948 O   0  0  0  0  0  0  0  0  0  0  0  0
    8.6026    3.1329   25.9635 O   0  0  0  0  0  0  0  0  0  0  0  0
    7.7725    2.0180   25.5623 S   0  0  0  0  0  0  0  0  0  0  0  0
   13.4285   -2.1410   21.1076 Cl  0  0  0  0  0  0  0  0  0  0  0  0
    2.5443    3.3508   20.6368 H   0  0  0  0  0  0  0  0  0  0  0  0
    3.5189    2.1137   22.5166 H   0  0  0  0  0  0  0  0  0  0  0  0
    3.3421    2.9744   18.3363 H   0  0  0  0  0  0  0  0  0  0  0  0
    5.3131    0.4893   22.1569 H   0  0  0  0  0  0  0  0  0  0  0  0
   12.5038    0.5986   24.9731 H   0  0  0  0  0  0  0  0  0  0  0  0
   13.9925   -0.5165   23.3773 H   0  0  0  0  0  0  0  0  0  0  0  0
   10.6052   -2.0169   21.2237 H   0  0  0  0  0  0  0  0  0  0  0  0
    4.9151    1.7511   16.7471 H   0  0  0  0  0  0  0  0  0  0  0  0
    7.6455   -0.9765   18.1038 H   0  0  0  0  0  0  0  0  0  0  0  0
    9.7866   -0.1187   25.8304 H   0  0  0  0  0  0  0  0  0  0  0  0
   10.4816    1.4567   25.3600 H   0  0  0  0  0  0  0  0  0  0  0  0
    5.7211    1.8049   30.8472 H   0  0  0  0  0  0  0  0  0  0  0  0
    4.7841    0.3699   30.4264 H   0  0  0  0  0  0  0  0  0  0  0  0
    3.5927    1.6551   28.8759 H   0  0  0  0  0  0  0  0  0  0  0  0
    4.5639    3.0543   29.3385 H   0  0  0  0  0  0  0  0  0  0  0  0
    7.4777    0.5169   29.9198 H   0  0  0  0  0  0  0  0  0  0  0  0
    6.3601   -0.3870   28.8897 H   0  0  0  0  0  0  0  0  0  0  0  0
    4.9663    1.1162   27.0742 H   0  0  0  0  0  0  0  0  0  0  0  0
    5.3157    2.8502   27.1044 H   0  0  0  0  0  0  0  0  0  0  0  0
    7.5167   -2.5459   23.3332 H   0  0  0  0  0  0  0  0  0  0  0  0
    8.7666   -2.9029   22.1426 H   0  0  0  0  0  0  0  0  0  0  0  0
    7.0601   -2.7250   20.5715 H   0  0  0  0  0  0  0  0  0  0  0  0
    5.9530   -1.9963   21.7709 H   0  0  0  0  0  0  0  0  0  0  0  0
    6.8882    0.2643   23.5640 H   0  0  0  0  0  0  0  0  0  0  0  0
    7.6667   -0.8657   24.6729 H   0  0  0  0  0  0  0  0  0  0  0  0
    7.1025    0.0260   26.5972 H   0  0  0  0  0  0  0  0  0  0  0  0
    8.6227    0.6594   27.2710 H   0  0  0  0  0  0  0  0  0  0  0  0
  1 26  1  0  0  0  0
  1 29  3  0  0  0  0
  2  3  2  0  0  0  0
  2  4  1  0  0  0  0
  3  5  1  0  0  0  0
  4 11  2  0  0  0  0
  5 12  2  0  0  0  0
  6  7  2  0  0  0  0
  6 13  1  0  0  0  0
  7 16  1  0  0  0  0
  8 14  1  0  0  0  0
  8 16  2  0  0  0  0
  9 11  1  0  0  0  0
  9 30  2  0  0  0  0
 10 15  2  0  0  0  0
 10 30  1  0  0  0  0
 11 12  1  0  0  0  0
 12 15  1  0  0  0  0
 13 14  2  0  0  0  0
 13 18  1  0  0  0  0
 14 27  1  0  0  0  0
 15 31  1  0  0  0  0
 16 37  1  0  0  0  0
 17 27  1  0  0  0  0
 17 31  1  0  0  0  0
 17 33  2  0  0  0  0
 18 32  1  0  0  0  0
 19 20  1  0  0  0  0
 19 21  1  0  0  0  0
 20 22  1  0  0  0  0
 21 26  1  0  0  0  0
 22 26  1  0  0  0  0
 23 24  1  0  0  0  0
 23 27  1  0  0  0  0
 24 31  1  0  0  0  0
 25 27  1  0  0  0  0
 25 32  1  0  0  0  0
 26 28  1  0  0  0  0
 28 36  1  0  0  0  0
 32 36  1  0  0  0  0
 34 36  2  0  0  0  0
 35 36  2  0  0  0  0
  2 38  1  0  0  0  0
  3 39  1  0  0  0  0
  4 40  1  0  0  0  0
  5 41  1  0  0  0  0
  6 42  1  0  0  0  0
  7 43  1  0  0  0  0
  8 44  1  0  0  0  0
  9 45  1  0  0  0  0
 10 46  1  0  0  0  0
 18 47  1  0  0  0  0
 18 48  1  0  0  0  0
 19 49  1  0  0  0  0
 19 50  1  0  0  0  0
 20 51  1  0  0  0  0
 20 52  1  0  0  0  0
 21 53  1  0  0  0  0
 21 54  1  0  0  0  0
 22 55  1  0  0  0  0
 22 56  1  0  0  0  0
 23 57  1  0  0  0  0
 23 58  1  0  0  0  0
 24 59  1  0  0  0  0
 24 60  1  0  0  0  0
 25 61  1  0  0  0  0
 25 62  1  0  0  0  0
 28 63  1  0  0  0  0
 28 64  1  0  0  0  0
M  END
> <scaffold>
tetrahydroisoquinoline-5spiro-isoquinoline

> <compound>
ALP-POS-ecbed2ba-15

> <compound_smiles>
c1ccc2c(c1)cncc2N3CCC4(C3=O)CN(Cc5c4cc(cc5)Cl)S(=O)(=O)CC6(CCCC6)C#N

> <enantiomer_smiles>
c1ccc2c(c1)cncc2N3CC[C@]4(C3=O)C[N@](Cc5c4cc(cc5)Cl)S(=O)(=O)CC6(CCCC6)C#N

> <clash_score>
0

> <docking_score>
3.4028234663852886e+38

> <overlap_score>
0.966705858707428

> <MMFF_internal_energy>
72.01658097452821

> <docked_smiles>
c1ccc2c(c1)cncc2N3CC[C@]4(C3=O)C[N@](Cc5c4cc(cc5)Cl)S(=O)(=O)CC6(CCCC6)C#N

$$$$
MAT-POS-853c0ffa-6_1
  -OEChem-01042202313D

 58 63  0     1  0  0  0  0  0999 V2000
    6.5923    2.6670   28.4298 C   0  0  0  0  0  0  0  0  0  0  0  0
   12.0781    0.0316   24.1532 C   0  0  0  0  0  0  0  0  0  0  0  0
   12.9147   -0.6032   23.2559 C   0  0  0  0  0  0  0  0  0  0  0  0
    3.7877    2.4205   19.1658 C   0  0  0  0  0  0  0  0  0  0  0  0
   11.0005   -1.4332   22.0435 C   0  0  0  0  0  0  0  0  0  0  0  0
    3.8974    1.9290   21.5048 C   0  0  0  0  0  0  0  0  0  0  0  0
    5.3288    1.2339   17.6062 C   0  0  0  0  0  0  0  0  0  0  0  0
    6.8449   -0.2893   18.3747 C   0  0  0  0  0  0  0  0  0  0  0  0
    4.8238    1.4906   18.9051 C   0  0  0  0  0  0  0  0  0  0  0  0
    5.3995    0.7732   19.9944 C   0  0  0  0  0  0  0  0  0  0  0  0
   10.7056   -0.0626   23.9890 C   0  0  0  0  0  0  0  0  0  0  0  0
   10.1421   -0.7766   22.9242 C   0  0  0  0  0  0  0  0  0  0  0  0
    6.4452   -0.1472   19.6975 C   0  0  0  0  0  0  0  0  0  0  0  0
    3.3444    2.6278   20.4409 C   0  0  0  0  0  0  0  0  0  0  0  0
   12.3697   -1.3298   22.2224 C   0  0  0  0  0  0  0  0  0  0  0  0
    4.8986    1.0232   21.2985 C   0  0  0  0  0  0  0  0  0  0  0  0
    8.2504    0.0168   21.4265 C   0  0  0  0  0  0  0  0  0  0  0  0
    9.9496    0.5589   24.9527 C   0  0  0  0  0  0  0  0  0  0  0  0
    5.7974    0.2895   28.6968 C   0  0  0  0  0  0  0  0  0  0  0  0
    5.0772    0.8711   27.5163 C   0  0  0  0  0  0  0  0  0  0  0  0
    8.0155   -2.1541   22.4325 C   0  0  0  0  0  0  0  0  0  0  0  0
    6.9880   -1.9367   21.3575 C   0  0  0  0  0  0  0  0  0  0  0  0
    7.8737   -0.1194   23.8825 C   0  0  0  0  0  0  0  0  0  0  0  0
    6.4702    1.3516   27.8565 C   0  0  0  0  0  0  0  0  0  0  0  0
    8.6253   -0.7606   22.6923 C   0  0  3  0  0  0  0  0  0  0  0  0
    7.6088    0.9304   26.9546 C   0  0  0  0  0  0  0  0  0  0  0  0
    6.6907    3.7268   28.8917 N   0  0  0  0  0  0  0  0  0  0  0  0
    6.3072    0.3768   17.3417 N   0  0  0  0  0  0  0  0  0  0  0  0
    7.2305   -0.6898   20.7785 N   0  0  0  0  0  0  0  0  0  0  0  0
    8.6625    1.0133   24.4989 N   0  0  3  0  0  0  0  0  0  0  0  0
    8.8314    1.0394   21.0790 O   0  0  0  0  0  0  0  0  0  0  0  0
    6.4559    2.2241   24.9990 O   0  0  0  0  0  0  0  0  0  0  0  0
    8.6119    3.1278   25.9583 O   0  0  0  0  0  0  0  0  0  0  0  0
    2.3589    3.5182   20.6800 F   0  0  0  0  0  0  0  0  0  0  0  0
    7.7725    2.0180   25.5623 S   0  0  0  0  0  0  0  0  0  0  0  0
   13.4285   -2.1410   21.1076 Cl  0  0  0  0  0  0  0  0  0  0  0  0
    5.4655    0.2476   22.7519 Cl  0  0  0  0  0  0  0  0  0  0  0  0
   12.5038    0.5986   24.9731 H   0  0  0  0  0  0  0  0  0  0  0  0
   13.9925   -0.5165   23.3773 H   0  0  0  0  0  0  0  0  0  0  0  0
    3.3411    2.9749   18.3372 H   0  0  0  0  0  0  0  0  0  0  0  0
   10.6052   -2.0169   21.2237 H   0  0  0  0  0  0  0  0  0  0  0  0
    3.4997    2.1315   22.5075 H   0  0  0  0  0  0  0  0  0  0  0  0
    4.9146    1.7513   16.7474 H   0  0  0  0  0  0  0  0  0  0  0  0
    7.6468   -0.9738   18.1001 H   0  0  0  0  0  0  0  0  0  0  0  0
    9.7866   -0.1187   25.8304 H   0  0  0  0  0  0  0  0  0  0  0  0
   10.4816    1.4567   25.3600 H   0  0  0  0  0  0  0  0  0  0  0  0
    5.4358    0.5518   29.6847 H   0  0  0  0  0  0  0  0  0  0  0  0
    6.1481   -0.7331   28.6181 H   0  0  0  0  0  0  0  0  0  0  0  0
    4.9448    0.2375   26.6469 H   0  0  0  0  0  0  0  0  0  0  0  0
    4.2331    1.5218   27.7145 H   0  0  0  0  0  0  0  0  0  0  0  0
    7.5167   -2.5459   23.3332 H   0  0  0  0  0  0  0  0  0  0  0  0
    8.7666   -2.9029   22.1426 H   0  0  0  0  0  0  0  0  0  0  0  0
    7.0601   -2.7250   20.5715 H   0  0  0  0  0  0  0  0  0  0  0  0
    5.9530   -1.9963   21.7709 H   0  0  0  0  0  0  0  0  0  0  0  0
    6.8882    0.2643   23.5640 H   0  0  0  0  0  0  0  0  0  0  0  0
    7.6667   -0.8657   24.6729 H   0  0  0  0  0  0  0  0  0  0  0  0
    7.4436   -0.0759   26.5599 H   0  0  0  0  0  0  0  0  0  0  0  0
    8.5609    0.9485   27.4918 H   0  0  0  0  0  0  0  0  0  0  0  0
  1 24  1  0  0  0  0
  1 27  3  0  0  0  0
  2  3  2  0  0  0  0
  2 11  1  0  0  0  0
  3 15  1  0  0  0  0
  4  9  2  0  0  0  0
  4 14  1  0  0  0  0
  5 12  1  0  0  0  0
  5 15  2  0  0  0  0
  6 14  2  0  0  0  0
  6 16  1  0  0  0  0
  7  9  1  0  0  0  0
  7 28  2  0  0  0  0
  8 13  2  0  0  0  0
  8 28  1  0  0  0  0
  9 10  1  0  0  0  0
 10 13  1  0  0  0  0
 10 16  2  0  0  0  0
 11 12  2  0  0  0  0
 11 18  1  0  0  0  0
 12 25  1  0  0  0  0
 13 29  1  0  0  0  0
 14 34  1  0  0  0  0
 15 36  1  0  0  0  0
 16 37  1  0  0  0  0
 17 25  1  0  0  0  0
 17 29  1  0  0  0  0
 17 31  2  0  0  0  0
 18 30  1  0  0  0  0
 19 20  1  0  0  0  0
 19 24  1  0  0  0  0
 20 24  1  0  0  0  0
 21 22  1  0  0  0  0
 21 25  1  0  0  0  0
 22 29  1  0  0  0  0
 23 25  1  0  0  0  0
 23 30  1  0  0  0  0
 24 26  1  0  0  0  0
 26 35  1  0  0  0  0
 30 35  1  0  0  0  0
 32 35  2  0  0  0  0
 33 35  2  0  0  0  0
  2 38  1  0  0  0  0
  3 39  1  0  0  0  0
  4 40  1  0  0  0  0
  5 41  1  0  0  0  0
  6 42  1  0  0  0  0
  7 43  1  0  0  0  0
  8 44  1  0  0  0  0
 18 45  1  0  0  0  0
 18 46  1  0  0  0  0
 19 47  1  0  0  0  0
 19 48  1  0  0  0  0
 20 49  1  0  0  0  0
 20 50  1  0  0  0  0
 21 51  1  0  0  0  0
 21 52  1  0  0  0  0
 22 53  1  0  0  0  0
 22 54  1  0  0  0  0
 23 55  1  0  0  0  0
 23 56  1  0  0  0  0
 26 57  1  0  0  0  0
 26 58  1  0  0  0  0
M  END
> <scaffold>
tetrahydroisoquinoline-5spiro-isoquinoline

> <compound>
MAT-POS-853c0ffa-6

> <compound_smiles>
c1cc2c(cc1Cl)C3(CCN(C3=O)c4cncc5c4c(cc(c5)F)Cl)CN(C2)S(=O)(=O)CC6(CC6)C#N

> <enantiomer_smiles>
c1cc2c(cc1Cl)[C@]3(CCN(C3=O)c4cncc5c4c(cc(c5)F)Cl)C[N@](C2)S(=O)(=O)CC6(CC6)C#N

> <clash_score>
0

> <docking_score>
3.4028234663852886e+38

> <overlap_score>
0.9862841963768005

> <MMFF_internal_energy>
180.5946578165945

> <docked_smiles>
c1cc2c(cc1Cl)[C@]3(CCN(C3=O)c4cncc5c4c(cc(c5)F)Cl)C[N@](C2)S(=O)(=O)CC6(CC6)C#N

$$$$
VLA-UNK-61877630-10_1
  -OEChem-01042202313D

 60 65  0     1  0  0  0  0  0999 V2000
    3.3444    2.6278   20.4409 C   0  0  0  0  0  0  0  0  0  0  0  0
    3.8974    1.9290   21.5048 C   0  0  0  0  0  0  0  0  0  0  0  0
    3.7877    2.4205   19.1658 C   0  0  0  0  0  0  0  0  0  0  0  0
    4.8986    1.0232   21.2985 C   0  0  0  0  0  0  0  0  0  0  0  0
   12.0781    0.0316   24.1532 C   0  0  0  0  0  0  0  0  0  0  0  0
   12.9147   -0.6032   23.2559 C   0  0  0  0  0  0  0  0  0  0  0  0
   11.0005   -1.4332   22.0435 C   0  0  0  0  0  0  0  0  0  0  0  0
    5.3288    1.2339   17.6062 C   0  0  0  0  0  0  0  0  0  0  0  0
    6.8449   -0.2893   18.3747 C   0  0  0  0  0  0  0  0  0  0  0  0
    4.8238    1.4906   18.9051 C   0  0  0  0  0  0  0  0  0  0  0  0
    5.3995    0.7732   19.9944 C   0  0  0  0  0  0  0  0  0  0  0  0
   10.7056   -0.0626   23.9890 C   0  0  0  0  0  0  0  0  0  0  0  0
   10.1421   -0.7766   22.9242 C   0  0  0  0  0  0  0  0  0  0  0  0
    6.4452   -0.1472   19.6975 C   0  0  0  0  0  0  0  0  0  0  0  0
   12.3697   -1.3298   22.2224 C   0  0  0  0  0  0  0  0  0  0  0  0
    8.2504    0.0168   21.4265 C   0  0  0  0  0  0  0  0  0  0  0  0
    9.9496    0.5589   24.9527 C   0  0  0  0  0  0  0  0  0  0  0  0
    5.0648    0.9829   27.4424 C   0  0  0  0  0  0  0  0  0  0  0  0
    5.7144    0.2716   28.5948 C   0  0  0  0  0  0  0  0  0  0  0  0
    8.0155   -2.1541   22.4325 C   0  0  0  0  0  0  0  0  0  0  0  0
    6.9880   -1.9367   21.3575 C   0  0  0  0  0  0  0  0  0  0  0  0
    7.8737   -0.1194   23.8825 C   0  0  0  0  0  0  0  0  0  0  0  0
    8.6253   -0.7606   22.6923 C   0  0  2  0  0  0  0  0  0  0  0  0
    6.4702    1.3516   27.8565 C   0  0  0  0  0  0  0  0  0  0  0  0
    7.6088    0.9304   26.9546 C   0  0  0  0  0  0  0  0  0  0  0  0
    6.6779    2.6684   28.5527 C   0  0  0  0  0  0  0  0  0  0  0  0
    6.3072    0.3768   17.3417 N   0  0  0  0  0  0  0  0  0  0  0  0
    7.2305   -0.6898   20.7785 N   0  0  0  0  0  0  0  0  0  0  0  0
    8.6625    1.0133   24.4989 N   0  0  3  0  0  0  0  0  0  0  0  0
    8.8314    1.0394   21.0790 O   0  0  0  0  0  0  0  0  0  0  0  0
    6.4559    2.2241   24.9990 O   0  0  0  0  0  0  0  0  0  0  0  0
    8.6119    3.1278   25.9583 O   0  0  0  0  0  0  0  0  0  0  0  0
    5.9700    2.7249   29.7007 F   0  0  0  0  0  0  0  0  0  0  0  0
    7.9796    2.8537   28.8575 F   0  0  0  0  0  0  0  0  0  0  0  0
    6.2838    3.6956   27.7706 F   0  0  0  0  0  0  0  0  0  0  0  0
    7.7725    2.0180   25.5623 S   0  0  0  0  0  0  0  0  0  0  0  0
   13.4285   -2.1410   21.1076 Cl  0  0  0  0  0  0  0  0  0  0  0  0
    2.5443    3.3508   20.6368 H   0  0  0  0  0  0  0  0  0  0  0  0
    3.5189    2.1137   22.5166 H   0  0  0  0  0  0  0  0  0  0  0  0
    3.3421    2.9744   18.3363 H   0  0  0  0  0  0  0  0  0  0  0  0
    5.3131    0.4893   22.1569 H   0  0  0  0  0  0  0  0  0  0  0  0
   12.5038    0.5986   24.9731 H   0  0  0  0  0  0  0  0  0  0  0  0
   13.9925   -0.5165   23.3773 H   0  0  0  0  0  0  0  0  0  0  0  0
   10.6052   -2.0169   21.2237 H   0  0  0  0  0  0  0  0  0  0  0  0
    4.9151    1.7511   16.7471 H   0  0  0  0  0  0  0  0  0  0  0  0
    7.6455   -0.9765   18.1038 H   0  0  0  0  0  0  0  0  0  0  0  0
    9.7866   -0.1187   25.8304 H   0  0  0  0  0  0  0  0  0  0  0  0
   10.4816    1.4567   25.3600 H   0  0  0  0  0  0  0  0  0  0  0  0
    4.9235    0.4267   26.5232 H   0  0  0  0  0  0  0  0  0  0  0  0
    4.2596    1.6726   27.6665 H   0  0  0  0  0  0  0  0  0  0  0  0
    5.3442    0.4849   29.5906 H   0  0  0  0  0  0  0  0  0  0  0  0
    6.0080   -0.7610   28.4474 H   0  0  0  0  0  0  0  0  0  0  0  0
    7.5167   -2.5459   23.3332 H   0  0  0  0  0  0  0  0  0  0  0  0
    8.7666   -2.9029   22.1426 H   0  0  0  0  0  0  0  0  0  0  0  0
    7.0601   -2.7250   20.5715 H   0  0  0  0  0  0  0  0  0  0  0  0
    5.9530   -1.9963   21.7709 H   0  0  0  0  0  0  0  0  0  0  0  0
    6.8882    0.2643   23.5640 H   0  0  0  0  0  0  0  0  0  0  0  0
    7.6667   -0.8657   24.6729 H   0  0  0  0  0  0  0  0  0  0  0  0
    7.4436   -0.0759   26.5599 H   0  0  0  0  0  0  0  0  0  0  0  0
    8.5609    0.9485   27.4918 H   0  0  0  0  0  0  0  0  0  0  0  0
  1  2  2  0  0  0  0
  1  3  1  0  0  0  0
  2  4  1  0  0  0  0
  3 10  2  0  0  0  0
  4 11  2  0  0  0  0
  5  6  2  0  0  0  0
  5 12  1  0  0  0  0
  6 15  1  0  0  0  0
  7 13  1  0  0  0  0
  7 15  2  0  0  0  0
  8 10  1  0  0  0  0
  8 27  2  0  0  0  0
  9 14  2  0  0  0  0
  9 27  1  0  0  0  0
 10 11  1  0  0  0  0
 11 14  1  0  0  0  0
 12 13  2  0  0  0  0
 12 17  1  0  0  0  0
 13 23  1  1  0  0  0
 14 28  1  0  0  0  0
 15 37  1  0  0  0  0
 16 23  1  6  0  0  0
 16 28  1  0  0  0  0
 16 30  2  0  0  0  0
 17 29  1  0  0  0  0
 18 19  1  0  0  0  0
 18 24  1  0  0  0  0
 19 24  1  0  0  0  0
 20 21  1  0  0  0  0
 20 23  1  6  0  0  0
 21 28  1  0  0  0  0
 22 23  1  1  0  0  0
 22 29  1  0  0  0  0
 24 25  1  0  0  0  0
 24 26  1  0  0  0  0
 25 36  1  0  0  0  0
 26 33  1  0  0  0  0
 26 34  1  0  0  0  0
 26 35  1  0  0  0  0
 29 36  1  0  0  0  0
 31 36  2  0  0  0  0
 32 36  2  0  0  0  0
  1 38  1  0  0  0  0
  2 39  1  0  0  0  0
  3 40  1  0  0  0  0
  4 41  1  0  0  0  0
  5 42  1  0  0  0  0
  6 43  1  0  0  0  0
  7 44  1  0  0  0  0
  8 45  1  0  0  0  0
  9 46  1  0  0  0  0
 17 47  1  0  0  0  0
 17 48  1  0  0  0  0
 18 49  1  0  0  0  0
 18 50  1  0  0  0  0
 19 51  1  0  0  0  0
 19 52  1  0  0  0  0
 20 53  1  0  0  0  0
 20 54  1  0  0  0  0
 21 55  1  0  0  0  0
 21 56  1  0  0  0  0
 22 57  1  0  0  0  0
 22 58  1  0  0  0  0
 25 59  1  0  0  0  0
 25 60  1  0  0  0  0
M  END
> <scaffold>
tetrahydroisoquinoline-5spiro-isoquinoline

> <compound>
VLA-UNK-61877630-10

> <compound_smiles>
c1ccc2c(c1)cncc2N3CC[C@]4(C3=O)CN(Cc5c4cc(cc5)Cl)S(=O)(=O)CC6(CC6)C(F)(F)F

> <enantiomer_smiles>
c1ccc2c(c1)cncc2N3CC[C@]4(C3=O)C[N@](Cc5c4cc(cc5)Cl)S(=O)(=O)CC6(CC6)C(F)(F)F

> <clash_score>
0

> <docking_score>
3.4028234663852886e+38

> <overlap_score>
0.9660907983779907

> <MMFF_internal_energy>
126.25453626939856

> <docked_smiles>
c1ccc2c(c1)cncc2N3CC[C@]4(C3=O)C[N@](Cc5c4cc(cc5)Cl)S(=O)(=O)CC6(CC6)C(F)(F)F

$$$$
VLA-UNK-f2612802-1_2
  -OEChem-01042202313D

 57 61  0     1  0  0  0  0  0999 V2000
    3.3444    2.6278   20.4409 C   0  0  0  0  0  0  0  0  0  0  0  0
    3.8974    1.9290   21.5048 C   0  0  0  0  0  0  0  0  0  0  0  0
    3.7877    2.4205   19.1658 C   0  0  0  0  0  0  0  0  0  0  0  0
    4.8986    1.0232   21.2985 C   0  0  0  0  0  0  0  0  0  0  0  0
   12.0781    0.0316   24.1532 C   0  0  0  0  0  0  0  0  0  0  0  0
   12.9147   -0.6032   23.2559 C   0  0  0  0  0  0  0  0  0  0  0  0
   11.0005   -1.4332   22.0435 C   0  0  0  0  0  0  0  0  0  0  0  0
    5.3288    1.2339   17.6062 C   0  0  0  0  0  0  0  0  0  0  0  0
    6.8449   -0.2893   18.3747 C   0  0  0  0  0  0  0  0  0  0  0  0
    4.8238    1.4906   18.9051 C   0  0  0  0  0  0  0  0  0  0  0  0
    5.3995    0.7732   19.9944 C   0  0  0  0  0  0  0  0  0  0  0  0
   10.1421   -0.7766   22.9242 C   0  0  0  0  0  0  0  0  0  0  0  0
    6.4452   -0.1472   19.6975 C   0  0  0  0  0  0  0  0  0  0  0  0
   10.7056   -0.0626   23.9890 C   0  0  0  0  0  0  0  0  0  0  0  0
   12.3697   -1.3298   22.2224 C   0  0  0  0  0  0  0  0  0  0  0  0
    8.2504    0.0168   21.4265 C   0  0  0  0  0  0  0  0  0  0  0  0
    7.4655    3.1014   24.6700 C   0  0  0  0  0  0  0  0  0  0  0  0
    8.0155   -2.1541   22.4325 C   0  0  0  0  0  0  0  0  0  0  0  0
    6.9880   -1.9367   21.3575 C   0  0  0  0  0  0  0  0  0  0  0  0
    7.8737   -0.1194   23.8825 C   0  0  2  0  0  0  0  0  0  0  0  0
    8.6253   -0.7606   22.6923 C   0  0  1  0  0  0  0  0  0  0  0  0
    7.2779    4.0140   26.9821 C   0  0  0  0  0  0  0  0  0  0  0  0
    8.4107    2.3013   23.8105 C   0  0  0  0  0  0  0  0  0  0  0  0
    6.4291    0.3537   23.5538 C   0  0  0  0  0  0  0  0  0  0  0  0
    6.3072    0.3768   17.3417 N   0  0  0  0  0  0  0  0  0  0  0  0
    7.2305   -0.6898   20.7785 N   0  0  0  0  0  0  0  0  0  0  0  0
    8.6625    1.0133   24.4989 N   0  0  3  0  0  0  0  0  0  0  0  0
    7.9734    3.2813   25.9486 N   0  0  0  0  0  0  0  0  0  0  0  0
    8.7599    1.0901   21.1229 O   0  0  0  0  0  0  0  0  0  0  0  0
    6.3878    3.5325   24.2688 O   0  0  0  0  0  0  0  0  0  0  0  0
   10.7433    1.7869   25.5174 O   0  0  0  0  0  0  0  0  0  0  0  0
    9.7068   -0.4257   26.1463 O   0  0  0  0  0  0  0  0  0  0  0  0
    5.8752    0.8692   24.6591 F   0  0  0  0  0  0  0  0  0  0  0  0
    6.4712    1.2957   22.6026 F   0  0  0  0  0  0  0  0  0  0  0  0
    5.6814   -0.6715   23.1246 F   0  0  0  0  0  0  0  0  0  0  0  0
    9.9496    0.5589   24.9527 S   0  0  0  0  0  0  0  0  0  0  0  0
   13.4299   -2.1478   21.1142 Cl  0  0  0  0  0  0  0  0  0  0  0  0
    2.5443    3.3508   20.6368 H   0  0  0  0  0  0  0  0  0  0  0  0
    3.5189    2.1137   22.5166 H   0  0  0  0  0  0  0  0  0  0  0  0
    3.3421    2.9744   18.3363 H   0  0  0  0  0  0  0  0  0  0  0  0
    5.3131    0.4893   22.1569 H   0  0  0  0  0  0  0  0  0  0  0  0
   12.5131    0.5943   24.9762 H   0  0  0  0  0  0  0  0  0  0  0  0
   13.9929   -0.5255   23.3842 H   0  0  0  0  0  0  0  0  0  0  0  0
   10.6150   -2.0293   21.2336 H   0  0  0  0  0  0  0  0  0  0  0  0
    4.9151    1.7511   16.7471 H   0  0  0  0  0  0  0  0  0  0  0  0
    7.6455   -0.9765   18.1038 H   0  0  0  0  0  0  0  0  0  0  0  0
    7.5785   -2.6163   23.3291 H   0  0  0  0  0  0  0  0  0  0  0  0
    8.7736   -2.8626   22.0609 H   0  0  0  0  0  0  0  0  0  0  0  0
    7.0271   -2.7510   20.5943 H   0  0  0  0  0  0  0  0  0  0  0  0
    5.9543   -1.9514   21.7779 H   0  0  0  0  0  0  0  0  0  0  0  0
    7.7290   -0.8850   24.6817 H   0  0  0  0  0  0  0  0  0  0  0  0
    7.5655    5.0748   26.9371 H   0  0  0  0  0  0  0  0  0  0  0  0
    6.1924    3.9218   26.8295 H   0  0  0  0  0  0  0  0  0  0  0  0
    7.5460    3.6030   27.9665 H   0  0  0  0  0  0  0  0  0  0  0  0
    7.9837    2.1765   22.8110 H   0  0  0  0  0  0  0  0  0  0  0  0
    9.3704    2.8205   23.7321 H   0  0  0  0  0  0  0  0  0  0  0  0
    8.8793    2.8780   26.1693 H   0  0  0  0  0  0  0  0  0  0  0  0
  1  2  2  0  0  0  0
  1  3  1  0  0  0  0
  2  4  1  0  0  0  0
  3 10  2  0  0  0  0
  4 11  2  0  0  0  0
  5  6  2  0  0  0  0
  5 14  1  0  0  0  0
  6 15  1  0  0  0  0
  7 12  1  0  0  0  0
  7 15  2  0  0  0  0
  8 10  1  0  0  0  0
  8 25  2  0  0  0  0
  9 13  2  0  0  0  0
  9 25  1  0  0  0  0
 10 11  1  0  0  0  0
 11 13  1  0  0  0  0
 12 14  2  0  0  0  0
 12 21  1  1  0  0  0
 13 26  1  0  0  0  0
 14 36  1  0  0  0  0
 15 37  1  0  0  0  0
 16 21  1  1  0  0  0
 16 26  1  0  0  0  0
 16 29  2  0  0  0  0
 17 23  1  0  0  0  0
 17 28  1  0  0  0  0
 17 30  2  0  0  0  0
 18 19  1  0  0  0  0
 18 21  1  6  0  0  0
 19 26  1  0  0  0  0
 20 21  1  6  0  0  0
 20 24  1  6  0  0  0
 20 27  1  0  0  0  0
 22 28  1  0  0  0  0
 23 27  1  0  0  0  0
 24 33  1  0  0  0  0
 24 34  1  0  0  0  0
 24 35  1  0  0  0  0
 27 36  1  0  0  0  0
 31 36  2  0  0  0  0
 32 36  2  0  0  0  0
  1 38  1  0  0  0  0
  2 39  1  0  0  0  0
  3 40  1  0  0  0  0
  4 41  1  0  0  0  0
  5 42  1  0  0  0  0
  6 43  1  0  0  0  0
  7 44  1  0  0  0  0
  8 45  1  0  0  0  0
  9 46  1  0  0  0  0
 18 47  1  0  0  0  0
 18 48  1  0  0  0  0
 19 49  1  0  0  0  0
 19 50  1  0  0  0  0
 20 51  1  0  0  0  0
 22 52  1  0  0  0  0
 22 53  1  0  0  0  0
 22 54  1  0  0  0  0
 23 55  1  0  0  0  0
 23 56  1  0  0  0  0
 28 57  1  0  0  0  0
M  END
> <scaffold>
tetralinlike-5spiro-isoquinoline

> <compound>
VLA-UNK-f2612802-1

> <compound_smiles>
CNC(=O)CN1C([C@]2(CCN(C2=O)c3cncc4c3cccc4)c5cc(ccc5S1(=O)=O)Cl)C(F)(F)F

> <enantiomer_smiles>
CNC(=O)C[N@]1[C@H]([C@]2(CCN(C2=O)c3cncc4c3cccc4)c5cc(ccc5S1(=O)=O)Cl)C(F)(F)F

> <clash_score>
0.7194287234551349

> <docking_score>
3.4028234663852886e+38

> <overlap_score>
1.0127103328704834

> <MMFF_internal_energy>
349.93396668076184

> <docked_smiles>
CNC(=O)C[N@]1[C@H]([C@]2(CCN(C2=O)c3cncc4c3cccc4)c5cc(ccc5S1(=O)=O)Cl)C(F)(F)F

$$$$
MAT-POS-50a80394-8_1
  -OEChem-01042202313D

 64 69  0     1  0  0  0  0  0999 V2000
    9.4476    5.5419   23.8398 C   0  0  0  0  0  0  0  0  0  0  0  0
    3.3444    2.6278   20.4409 C   0  0  0  0  0  0  0  0  0  0  0  0
    3.8974    1.9290   21.5048 C   0  0  0  0  0  0  0  0  0  0  0  0
    3.7877    2.4205   19.1658 C   0  0  0  0  0  0  0  0  0  0  0  0
    4.8986    1.0232   21.2985 C   0  0  0  0  0  0  0  0  0  0  0  0
   12.0781    0.0316   24.1532 C   0  0  0  0  0  0  0  0  0  0  0  0
   12.9147   -0.6032   23.2559 C   0  0  0  0  0  0  0  0  0  0  0  0
   11.0005   -1.4332   22.0435 C   0  0  0  0  0  0  0  0  0  0  0  0
    5.3288    1.2339   17.6062 C   0  0  0  0  0  0  0  0  0  0  0  0
    6.8449   -0.2893   18.3747 C   0  0  0  0  0  0  0  0  0  0  0  0
    4.8238    1.4906   18.9051 C   0  0  0  0  0  0  0  0  0  0  0  0
    5.3995    0.7732   19.9944 C   0  0  0  0  0  0  0  0  0  0  0  0
   10.7056   -0.0626   23.9890 C   0  0  0  0  0  0  0  0  0  0  0  0
   10.1421   -0.7766   22.9242 C   0  0  0  0  0  0  0  0  0  0  0  0
    6.4452   -0.1472   19.6975 C   0  0  0  0  0  0  0  0  0  0  0  0
   12.3697   -1.3298   22.2224 C   0  0  0  0  0  0  0  0  0  0  0  0
    8.2504    0.0168   21.4265 C   0  0  0  0  0  0  0  0  0  0  0  0
    9.9496    0.5589   24.9527 C   0  0  0  0  0  0  0  0  0  0  0  0
    7.5068    6.0335   25.3719 C   0  0  0  0  0  0  0  0  0  0  0  0
    6.9369    5.5647   24.0658 C   0  0  0  0  0  0  0  0  0  0  0  0
    7.8737   -0.1194   23.8825 C   0  0  0  0  0  0  0  0  0  0  0  0
    6.9880   -1.9367   21.3575 C   0  0  0  0  0  0  0  0  0  0  0  0
    8.2817    5.0482   24.5260 C   0  0  0  0  0  0  0  0  0  0  0  0
    8.6253   -0.7606   22.6923 C   0  0  3  0  0  0  0  0  0  0  0  0
    8.0155   -2.1541   22.4325 C   0  0  0  0  0  0  0  0  0  0  0  0
    9.0257   -3.2510   21.9806 C   0  0  0  0  0  0  0  0  0  0  0  0
    7.2827   -2.7523   23.6821 C   0  0  0  0  0  0  0  0  0  0  0  0
    8.3692    3.6155   25.0021 C   0  0  0  0  0  0  0  0  0  0  0  0
   10.3869    5.9397   23.2871 N   0  0  0  0  0  0  0  0  0  0  0  0
    6.3072    0.3768   17.3417 N   0  0  0  0  0  0  0  0  0  0  0  0
    7.2305   -0.6898   20.7785 N   0  0  0  0  0  0  0  0  0  0  0  0
    8.6625    1.0133   24.4989 N   0  0  3  0  0  0  0  0  0  0  0  0
    8.8310    1.0351   21.0682 O   0  0  0  0  0  0  0  0  0  0  0  0
    7.4163    2.5262   22.8267 O   0  0  0  0  0  0  0  0  0  0  0  0
    9.9204    2.7386   23.0910 O   0  0  0  0  0  0  0  0  0  0  0  0
    8.6074    2.4931   23.6483 S   0  0  0  0  0  0  0  0  0  0  0  0
   13.4293   -2.1443   21.1115 Cl  0  0  0  0  0  0  0  0  0  0  0  0
    2.5443    3.3508   20.6368 H   0  0  0  0  0  0  0  0  0  0  0  0
    3.5189    2.1137   22.5166 H   0  0  0  0  0  0  0  0  0  0  0  0
    3.3421    2.9744   18.3363 H   0  0  0  0  0  0  0  0  0  0  0  0
    5.3131    0.4893   22.1569 H   0  0  0  0  0  0  0  0  0  0  0  0
   12.5038    0.5987   24.9725 H   0  0  0  0  0  0  0  0  0  0  0  0
   13.9929   -0.5172   23.3779 H   0  0  0  0  0  0  0  0  0  0  0  0
   10.6211   -2.0224   21.2244 H   0  0  0  0  0  0  0  0  0  0  0  0
    4.9151    1.7511   16.7471 H   0  0  0  0  0  0  0  0  0  0  0  0
    7.6455   -0.9765   18.1038 H   0  0  0  0  0  0  0  0  0  0  0  0
    9.7613   -0.1243   25.8159 H   0  0  0  0  0  0  0  0  0  0  0  0
   10.4912    1.4426   25.3697 H   0  0  0  0  0  0  0  0  0  0  0  0
    7.8502    7.0602   25.4303 H   0  0  0  0  0  0  0  0  0  0  0  0
    7.0370    5.6782   26.2819 H   0  0  0  0  0  0  0  0  0  0  0  0
    6.0845    4.8960   24.1009 H   0  0  0  0  0  0  0  0  0  0  0  0
    6.8982    6.2783   23.2506 H   0  0  0  0  0  0  0  0  0  0  0  0
    6.8894    0.2846   23.5707 H   0  0  0  0  0  0  0  0  0  0  0  0
    7.6342   -0.8661   24.6604 H   0  0  0  0  0  0  0  0  0  0  0  0
    7.0424   -2.7151   20.5567 H   0  0  0  0  0  0  0  0  0  0  0  0
    5.9391   -1.9874   21.7453 H   0  0  0  0  0  0  0  0  0  0  0  0
    9.7558   -3.4234   22.7647 H   0  0  0  0  0  0  0  0  0  0  0  0
    9.5283   -2.9037   21.0838 H   0  0  0  0  0  0  0  0  0  0  0  0
    8.4940   -4.1728   21.7676 H   0  0  0  0  0  0  0  0  0  0  0  0
    8.0050   -2.9384   24.4658 H   0  0  0  0  0  0  0  0  0  0  0  0
    6.7931   -3.6750   23.4000 H   0  0  0  0  0  0  0  0  0  0  0  0
    6.5505   -2.0283   24.0143 H   0  0  0  0  0  0  0  0  0  0  0  0
    7.4492    3.3154   25.5114 H   0  0  0  0  0  0  0  0  0  0  0  0
    9.2124    3.4807   25.6849 H   0  0  0  0  0  0  0  0  0  0  0  0
  1 23  1  0  0  0  0
  1 29  3  0  0  0  0
  2  3  2  0  0  0  0
  2  4  1  0  0  0  0
  3  5  1  0  0  0  0
  4 11  2  0  0  0  0
  5 12  2  0  0  0  0
  6  7  2  0  0  0  0
  6 13  1  0  0  0  0
  7 16  1  0  0  0  0
  8 14  1  0  0  0  0
  8 16  2  0  0  0  0
  9 11  1  0  0  0  0
  9 30  2  0  0  0  0
 10 15  2  0  0  0  0
 10 30  1  0  0  0  0
 11 12  1  0  0  0  0
 12 15  1  0  0  0  0
 13 14  2  0  0  0  0
 13 18  1  0  0  0  0
 14 24  1  0  0  0  0
 15 31  1  0  0  0  0
 16 37  1  0  0  0  0
 17 24  1  0  0  0  0
 17 31  1  0  0  0  0
 17 33  2  0  0  0  0
 18 32  1  0  0  0  0
 19 20  1  0  0  0  0
 19 23  1  0  0  0  0
 20 23  1  0  0  0  0
 21 24  1  0  0  0  0
 21 32  1  0  0  0  0
 22 25  1  0  0  0  0
 22 31  1  0  0  0  0
 23 28  1  0  0  0  0
 24 25  1  0  0  0  0
 25 26  1  0  0  0  0
 25 27  1  0  0  0  0
 28 36  1  0  0  0  0
 32 36  1  0  0  0  0
 34 36  2  0  0  0  0
 35 36  2  0  0  0  0
  2 38  1  0  0  0  0
  3 39  1  0  0  0  0
  4 40  1  0  0  0  0
  5 41  1  0  0  0  0
  6 42  1  0  0  0  0
  7 43  1  0  0  0  0
  8 44  1  0  0  0  0
  9 45  1  0  0  0  0
 10 46  1  0  0  0  0
 18 47  1  0  0  0  0
 18 48  1  0  0  0  0
 19 49  1  0  0  0  0
 19 50  1  0  0  0  0
 20 51  1  0  0  0  0
 20 52  1  0  0  0  0
 21 53  1  0  0  0  0
 21 54  1  0  0  0  0
 22 55  1  0  0  0  0
 22 56  1  0  0  0  0
 26 57  1  0  0  0  0
 26 58  1  0  0  0  0
 26 59  1  0  0  0  0
 27 60  1  0  0  0  0
 27 61  1  0  0  0  0
 27 62  1  0  0  0  0
 28 63  1  0  0  0  0
 28 64  1  0  0  0  0
M  END
> <scaffold>
tetrahydroisoquinoline-5spiro-isoquinoline

> <compound>
MAT-POS-50a80394-8

> <compound_smiles>
CC1(CN(C(=O)C12CN(Cc3c2cc(cc3)Cl)S(=O)(=O)CC4(CC4)C#N)c5cncc6c5cccc6)C

> <enantiomer_smiles>
CC1(CN(C(=O)[C@@]12C[N@@](Cc3c2cc(cc3)Cl)S(=O)(=O)CC4(CC4)C#N)c5cncc6c5cccc6)C

> <clash_score>
0

> <docking_score>
3.4028234663852886e+38

> <overlap_score>
0.9893754720687866

> <MMFF_internal_energy>
178.35842932535385

> <docked_smiles>
CC1(CN(C(=O)[C@@]12C[N@@](Cc3c2cc(cc3)Cl)S(=O)(=O)CC4(CC4)C#N)c5cncc6c5cccc6)C

$$$$
EDJ-MED-5cd3920d-6_1
  -OEChem-01042202313D

 60 65  0     1  0  0  0  0  0999 V2000
    3.3444    2.6278   20.4409 C   0  0  0  0  0  0  0  0  0  0  0  0
    3.8974    1.9290   21.5048 C   0  0  0  0  0  0  0  0  0  0  0  0
    3.7877    2.4205   19.1658 C   0  0  0  0  0  0  0  0  0  0  0  0
    4.8986    1.0232   21.2985 C   0  0  0  0  0  0  0  0  0  0  0  0
   12.0781    0.0316   24.1532 C   0  0  0  0  0  0  0  0  0  0  0  0
   12.9147   -0.6032   23.2559 C   0  0  0  0  0  0  0  0  0  0  0  0
   11.0005   -1.4332   22.0435 C   0  0  0  0  0  0  0  0  0  0  0  0
    5.3288    1.2339   17.6062 C   0  0  0  0  0  0  0  0  0  0  0  0
    6.8449   -0.2893   18.3747 C   0  0  0  0  0  0  0  0  0  0  0  0
    4.8238    1.4906   18.9051 C   0  0  0  0  0  0  0  0  0  0  0  0
    5.3995    0.7732   19.9944 C   0  0  0  0  0  0  0  0  0  0  0  0
   10.7056   -0.0626   23.9890 C   0  0  0  0  0  0  0  0  0  0  0  0
   10.1421   -0.7766   22.9242 C   0  0  0  0  0  0  0  0  0  0  0  0
    6.4452   -0.1472   19.6975 C   0  0  0  0  0  0  0  0  0  0  0  0
   12.3697   -1.3298   22.2224 C   0  0  0  0  0  0  0  0  0  0  0  0
    8.2504    0.0168   21.4265 C   0  0  0  0  0  0  0  0  0  0  0  0
    9.9496    0.5589   24.9527 C   0  0  0  0  0  0  0  0  0  0  0  0
    5.0648    0.9829   27.4424 C   0  0  0  0  0  0  0  0  0  0  0  0
    5.7144    0.2716   28.5948 C   0  0  0  0  0  0  0  0  0  0  0  0
    8.0155   -2.1541   22.4325 C   0  0  0  0  0  0  0  0  0  0  0  0
    6.9880   -1.9367   21.3575 C   0  0  0  0  0  0  0  0  0  0  0  0
    7.8737   -0.1194   23.8825 C   0  0  0  0  0  0  0  0  0  0  0  0
    8.6253   -0.7606   22.6923 C   0  0  3  0  0  0  0  0  0  0  0  0
    6.4702    1.3516   27.8565 C   0  0  0  0  0  0  0  0  0  0  0  0
    7.6088    0.9304   26.9546 C   0  0  0  0  0  0  0  0  0  0  0  0
    6.6779    2.6684   28.5527 C   0  0  0  0  0  0  0  0  0  0  0  0
    6.3072    0.3768   17.3417 N   0  0  0  0  0  0  0  0  0  0  0  0
    7.2305   -0.6898   20.7785 N   0  0  0  0  0  0  0  0  0  0  0  0
    8.6625    1.0133   24.4989 N   0  0  3  0  0  0  0  0  0  0  0  0
    8.8314    1.0394   21.0790 O   0  0  0  0  0  0  0  0  0  0  0  0
    6.4559    2.2241   24.9990 O   0  0  0  0  0  0  0  0  0  0  0  0
    8.6119    3.1278   25.9583 O   0  0  0  0  0  0  0  0  0  0  0  0
    5.9700    2.7249   29.7007 F   0  0  0  0  0  0  0  0  0  0  0  0
    7.9796    2.8537   28.8575 F   0  0  0  0  0  0  0  0  0  0  0  0
    6.2838    3.6956   27.7706 F   0  0  0  0  0  0  0  0  0  0  0  0
    7.7725    2.0180   25.5623 S   0  0  0  0  0  0  0  0  0  0  0  0
   13.4285   -2.1410   21.1076 Cl  0  0  0  0  0  0  0  0  0  0  0  0
    2.5443    3.3508   20.6368 H   0  0  0  0  0  0  0  0  0  0  0  0
    3.5189    2.1137   22.5166 H   0  0  0  0  0  0  0  0  0  0  0  0
    3.3421    2.9744   18.3363 H   0  0  0  0  0  0  0  0  0  0  0  0
    5.3131    0.4893   22.1569 H   0  0  0  0  0  0  0  0  0  0  0  0
   12.5038    0.5986   24.9731 H   0  0  0  0  0  0  0  0  0  0  0  0
   13.9925   -0.5165   23.3773 H   0  0  0  0  0  0  0  0  0  0  0  0
   10.6052   -2.0169   21.2237 H   0  0  0  0  0  0  0  0  0  0  0  0
    4.9151    1.7511   16.7471 H   0  0  0  0  0  0  0  0  0  0  0  0
    7.6455   -0.9765   18.1038 H   0  0  0  0  0  0  0  0  0  0  0  0
    9.7866   -0.1187   25.8304 H   0  0  0  0  0  0  0  0  0  0  0  0
   10.4816    1.4567   25.3600 H   0  0  0  0  0  0  0  0  0  0  0  0
    4.9235    0.4267   26.5232 H   0  0  0  0  0  0  0  0  0  0  0  0
    4.2596    1.6726   27.6665 H   0  0  0  0  0  0  0  0  0  0  0  0
    5.3442    0.4849   29.5906 H   0  0  0  0  0  0  0  0  0  0  0  0
    6.0080   -0.7610   28.4474 H   0  0  0  0  0  0  0  0  0  0  0  0
    7.5167   -2.5459   23.3332 H   0  0  0  0  0  0  0  0  0  0  0  0
    8.7666   -2.9029   22.1426 H   0  0  0  0  0  0  0  0  0  0  0  0
    7.0601   -2.7250   20.5715 H   0  0  0  0  0  0  0  0  0  0  0  0
    5.9530   -1.9963   21.7709 H   0  0  0  0  0  0  0  0  0  0  0  0
    6.8882    0.2643   23.5640 H   0  0  0  0  0  0  0  0  0  0  0  0
    7.6667   -0.8657   24.6729 H   0  0  0  0  0  0  0  0  0  0  0  0
    7.4436   -0.0759   26.5599 H   0  0  0  0  0  0  0  0  0  0  0  0
    8.5609    0.9485   27.4918 H   0  0  0  0  0  0  0  0  0  0  0  0
  1  2  2  0  0  0  0
  1  3  1  0  0  0  0
  2  4  1  0  0  0  0
  3 10  2  0  0  0  0
  4 11  2  0  0  0  0
  5  6  2  0  0  0  0
  5 12  1  0  0  0  0
  6 15  1  0  0  0  0
  7 13  1  0  0  0  0
  7 15  2  0  0  0  0
  8 10  1  0  0  0  0
  8 27  2  0  0  0  0
  9 14  2  0  0  0  0
  9 27  1  0  0  0  0
 10 11  1  0  0  0  0
 11 14  1  0  0  0  0
 12 13  2  0  0  0  0
 12 17  1  0  0  0  0
 13 23  1  0  0  0  0
 14 28  1  0  0  0  0
 15 37  1  0  0  0  0
 16 23  1  0  0  0  0
 16 28  1  0  0  0  0
 16 30  2  0  0  0  0
 17 29  1  0  0  0  0
 18 19  1  0  0  0  0
 18 24  1  0  0  0  0
 19 24  1  0  0  0  0
 20 21  1  0  0  0  0
 20 23  1  0  0  0  0
 21 28  1  0  0  0  0
 22 23  1  0  0  0  0
 22 29  1  0  0  0  0
 24 25  1  0  0  0  0
 24 26  1  0  0  0  0
 25 36  1  0  0  0  0
 26 33  1  0  0  0  0
 26 34  1  0  0  0  0
 26 35  1  0  0  0  0
 29 36  1  0  0  0  0
 31 36  2  0  0  0  0
 32 36  2  0  0  0  0
  1 38  1  0  0  0  0
  2 39  1  0  0  0  0
  3 40  1  0  0  0  0
  4 41  1  0  0  0  0
  5 42  1  0  0  0  0
  6 43  1  0  0  0  0
  7 44  1  0  0  0  0
  8 45  1  0  0  0  0
  9 46  1  0  0  0  0
 17 47  1  0  0  0  0
 17 48  1  0  0  0  0
 18 49  1  0  0  0  0
 18 50  1  0  0  0  0
 19 51  1  0  0  0  0
 19 52  1  0  0  0  0
 20 53  1  0  0  0  0
 20 54  1  0  0  0  0
 21 55  1  0  0  0  0
 21 56  1  0  0  0  0
 22 57  1  0  0  0  0
 22 58  1  0  0  0  0
 25 59  1  0  0  0  0
 25 60  1  0  0  0  0
M  END
> <scaffold>
tetrahydroisoquinoline-5spiro-isoquinoline

> <compound>
EDJ-MED-5cd3920d-6

> <compound_smiles>
c1ccc2c(c1)cncc2N3CCC4(C3=O)CN(Cc5c4cc(cc5)Cl)S(=O)(=O)CC6(CC6)C(F)(F)F

> <enantiomer_smiles>
c1ccc2c(c1)cncc2N3CC[C@]4(C3=O)C[N@](Cc5c4cc(cc5)Cl)S(=O)(=O)CC6(CC6)C(F)(F)F

> <clash_score>
0

> <docking_score>
3.4028234663852886e+38

> <overlap_score>
0.9660907983779907

> <MMFF_internal_energy>
126.25453626939856

> <docked_smiles>
c1ccc2c(c1)cncc2N3CC[C@]4(C3=O)C[N@](Cc5c4cc(cc5)Cl)S(=O)(=O)CC6(CC6)C(F)(F)F

$$$$
VLA-UNK-61877630-8_1
  -OEChem-01042202313D

 58 63  0     1  0  0  0  0  0999 V2000
    6.5923    2.6671   28.4298 C   0  0  0  0  0  0  0  0  0  0  0  0
    3.3444    2.6278   20.4409 C   0  0  0  0  0  0  0  0  0  0  0  0
    3.8974    1.9290   21.5048 C   0  0  0  0  0  0  0  0  0  0  0  0
    3.7877    2.4205   19.1658 C   0  0  0  0  0  0  0  0  0  0  0  0
    4.8986    1.0232   21.2985 C   0  0  0  0  0  0  0  0  0  0  0  0
   12.0781    0.0316   24.1532 C   0  0  0  0  0  0  0  0  0  0  0  0
   11.0005   -1.4332   22.0435 C   0  0  0  0  0  0  0  0  0  0  0  0
    5.3288    1.2339   17.6062 C   0  0  0  0  0  0  0  0  0  0  0  0
    6.8449   -0.2893   18.3747 C   0  0  0  0  0  0  0  0  0  0  0  0
    4.8238    1.4906   18.9051 C   0  0  0  0  0  0  0  0  0  0  0  0
    5.3995    0.7732   19.9944 C   0  0  0  0  0  0  0  0  0  0  0  0
   10.7056   -0.0626   23.9890 C   0  0  0  0  0  0  0  0  0  0  0  0
   10.1421   -0.7766   22.9242 C   0  0  0  0  0  0  0  0  0  0  0  0
    6.4452   -0.1472   19.6975 C   0  0  0  0  0  0  0  0  0  0  0  0
   12.9147   -0.6032   23.2559 C   0  0  0  0  0  0  0  0  0  0  0  0
   12.3697   -1.3298   22.2224 C   0  0  0  0  0  0  0  0  0  0  0  0
    8.2504    0.0168   21.4265 C   0  0  0  0  0  0  0  0  0  0  0  0
    9.9496    0.5589   24.9527 C   0  0  0  0  0  0  0  0  0  0  0  0
    5.7973    0.2896   28.6969 C   0  0  0  0  0  0  0  0  0  0  0  0
    5.0771    0.8712   27.5163 C   0  0  0  0  0  0  0  0  0  0  0  0
    8.0155   -2.1541   22.4325 C   0  0  0  0  0  0  0  0  0  0  0  0
    6.9880   -1.9367   21.3575 C   0  0  0  0  0  0  0  0  0  0  0  0
    7.8737   -0.1194   23.8825 C   0  0  0  0  0  0  0  0  0  0  0  0
    6.4702    1.3517   27.8566 C   0  0  0  0  0  0  0  0  0  0  0  0
    8.6253   -0.7606   22.6923 C   0  0  2  0  0  0  0  0  0  0  0  0
    7.6087    0.9304   26.9547 C   0  0  0  0  0  0  0  0  0  0  0  0
    6.6907    3.7269   28.8916 N   0  0  0  0  0  0  0  0  0  0  0  0
    6.3072    0.3768   17.3417 N   0  0  0  0  0  0  0  0  0  0  0  0
    7.2305   -0.6898   20.7785 N   0  0  0  0  0  0  0  0  0  0  0  0
    8.6625    1.0133   24.4989 N   0  0  3  0  0  0  0  0  0  0  0  0
    8.8314    1.0394   21.0790 O   0  0  0  0  0  0  0  0  0  0  0  0
    6.4558    2.2241   24.9991 O   0  0  0  0  0  0  0  0  0  0  0  0
    8.6119    3.1278   25.9583 O   0  0  0  0  0  0  0  0  0  0  0  0
   14.2443   -0.4995   23.4041 F   0  0  0  0  0  0  0  0  0  0  0  0
    7.7725    2.0180   25.5623 S   0  0  0  0  0  0  0  0  0  0  0  0
   13.4233   -2.1460   21.1056 Cl  0  0  0  0  0  0  0  0  0  0  0  0
    2.5443    3.3508   20.6368 H   0  0  0  0  0  0  0  0  0  0  0  0
    3.5189    2.1137   22.5166 H   0  0  0  0  0  0  0  0  0  0  0  0
    3.3421    2.9744   18.3363 H   0  0  0  0  0  0  0  0  0  0  0  0
    5.3131    0.4893   22.1569 H   0  0  0  0  0  0  0  0  0  0  0  0
   12.5048    0.5986   24.9725 H   0  0  0  0  0  0  0  0  0  0  0  0
   10.6049   -2.0173   21.2241 H   0  0  0  0  0  0  0  0  0  0  0  0
    4.9151    1.7511   16.7471 H   0  0  0  0  0  0  0  0  0  0  0  0
    7.6455   -0.9765   18.1038 H   0  0  0  0  0  0  0  0  0  0  0  0
    9.7866   -0.1186   25.8304 H   0  0  0  0  0  0  0  0  0  0  0  0
   10.4819    1.4564   25.3600 H   0  0  0  0  0  0  0  0  0  0  0  0
    5.4357    0.5520   29.6847 H   0  0  0  0  0  0  0  0  0  0  0  0
    6.1481   -0.7329   28.6181 H   0  0  0  0  0  0  0  0  0  0  0  0
    4.9447    0.2375   26.6469 H   0  0  0  0  0  0  0  0  0  0  0  0
    4.2330    1.5219   27.7145 H   0  0  0  0  0  0  0  0  0  0  0  0
    7.5166   -2.5452   23.3334 H   0  0  0  0  0  0  0  0  0  0  0  0
    8.7662   -2.9032   22.1424 H   0  0  0  0  0  0  0  0  0  0  0  0
    7.0591   -2.7249   20.5713 H   0  0  0  0  0  0  0  0  0  0  0  0
    5.9531   -1.9957   21.7711 H   0  0  0  0  0  0  0  0  0  0  0  0
    6.8880    0.2642   23.5642 H   0  0  0  0  0  0  0  0  0  0  0  0
    7.6672   -0.8656   24.6733 H   0  0  0  0  0  0  0  0  0  0  0  0
    7.4436   -0.0759   26.5599 H   0  0  0  0  0  0  0  0  0  0  0  0
    8.5609    0.9486   27.4918 H   0  0  0  0  0  0  0  0  0  0  0  0
  1 24  1  0  0  0  0
  1 27  3  0  0  0  0
  2  3  2  0  0  0  0
  2  4  1  0  0  0  0
  3  5  1  0  0  0  0
  4 10  2  0  0  0  0
  5 11  2  0  0  0  0
  6 12  2  0  0  0  0
  6 15  1  0  0  0  0
  7 13  2  0  0  0  0
  7 16  1  0  0  0  0
  8 10  1  0  0  0  0
  8 28  2  0  0  0  0
  9 14  2  0  0  0  0
  9 28  1  0  0  0  0
 10 11  1  0  0  0  0
 11 14  1  0  0  0  0
 12 13  1  0  0  0  0
 12 18  1  0  0  0  0
 13 25  1  1  0  0  0
 14 29  1  0  0  0  0
 15 16  2  0  0  0  0
 15 34  1  0  0  0  0
 16 36  1  0  0  0  0
 17 25  1  6  0  0  0
 17 29  1  0  0  0  0
 17 31  2  0  0  0  0
 18 30  1  0  0  0  0
 19 20  1  0  0  0  0
 19 24  1  0  0  0  0
 20 24  1  0  0  0  0
 21 22  1  0  0  0  0
 21 25  1  6  0  0  0
 22 29  1  0  0  0  0
 23 25  1  1  0  0  0
 23 30  1  0  0  0  0
 24 26  1  0  0  0  0
 26 35  1  0  0  0  0
 30 35  1  0  0  0  0
 32 35  2  0  0  0  0
 33 35  2  0  0  0  0
  2 37  1  0  0  0  0
  3 38  1  0  0  0  0
  4 39  1  0  0  0  0
  5 40  1  0  0  0  0
  6 41  1  0  0  0  0
  7 42  1  0  0  0  0
  8 43  1  0  0  0  0
  9 44  1  0  0  0  0
 18 45  1  0  0  0  0
 18 46  1  0  0  0  0
 19 47  1  0  0  0  0
 19 48  1  0  0  0  0
 20 49  1  0  0  0  0
 20 50  1  0  0  0  0
 21 51  1  0  0  0  0
 21 52  1  0  0  0  0
 22 53  1  0  0  0  0
 22 54  1  0  0  0  0
 23 55  1  0  0  0  0
 23 56  1  0  0  0  0
 26 57  1  0  0  0  0
 26 58  1  0  0  0  0
M  END
> <scaffold>
tetrahydroisoquinoline-5spiro-isoquinoline

> <compound>
VLA-UNK-61877630-8

> <compound_smiles>
c1ccc2c(c1)cncc2N3CC[C@]4(C3=O)CN(Cc5c4cc(c(c5)F)Cl)S(=O)(=O)CC6(CC6)C#N

> <enantiomer_smiles>
c1ccc2c(c1)cncc2N3CC[C@]4(C3=O)C[N@](Cc5c4cc(c(c5)F)Cl)S(=O)(=O)CC6(CC6)C#N

> <clash_score>
0

> <docking_score>
3.4028234663852886e+38

> <overlap_score>
0.9794474840164185

> <MMFF_internal_energy>
121.72224648450906

> <docked_smiles>
c1ccc2c(c1)cncc2N3CC[C@]4(C3=O)C[N@](Cc5c4cc(c(c5)F)Cl)S(=O)(=O)CC6(CC6)C#N

$$$$
EDJ-MED-976a33d5-2_1
  -OEChem-01042202313D

 63 68  0     1  0  0  0  0  0999 V2000
    4.8986    1.0232   21.2985 C   0  0  0  0  0  0  0  0  0  0  0  0
   12.0781    0.0316   24.1532 C   0  0  0  0  0  0  0  0  0  0  0  0
    3.8974    1.9290   21.5048 C   0  0  0  0  0  0  0  0  0  0  0  0
   12.9147   -0.6032   23.2559 C   0  0  0  0  0  0  0  0  0  0  0  0
    3.7877    2.4205   19.1658 C   0  0  0  0  0  0  0  0  0  0  0  0
   11.0005   -1.4332   22.0435 C   0  0  0  0  0  0  0  0  0  0  0  0
    5.3288    1.2339   17.6062 C   0  0  0  0  0  0  0  0  0  0  0  0
    6.8449   -0.2893   18.3747 C   0  0  0  0  0  0  0  0  0  0  0  0
    5.3995    0.7732   19.9944 C   0  0  0  0  0  0  0  0  0  0  0  0
    4.8238    1.4906   18.9051 C   0  0  0  0  0  0  0  0  0  0  0  0
   10.7056   -0.0626   23.9890 C   0  0  0  0  0  0  0  0  0  0  0  0
   10.1421   -0.7766   22.9242 C   0  0  0  0  0  0  0  0  0  0  0  0
    6.4452   -0.1472   19.6975 C   0  0  0  0  0  0  0  0  0  0  0  0
    3.3444    2.6278   20.4409 C   0  0  0  0  0  0  0  0  0  0  0  0
   12.3697   -1.3298   22.2224 C   0  0  0  0  0  0  0  0  0  0  0  0
    9.9496    0.5589   24.9527 C   0  0  0  0  0  0  0  0  0  0  0  0
    8.2504    0.0168   21.4265 C   0  0  0  0  0  0  0  0  0  0  0  0
    7.2743    2.2339   25.9911 C   0  0  0  0  0  0  0  0  0  0  0  0
    7.6484    3.1063   23.6248 C   0  0  0  0  0  0  0  0  0  0  0  0
    8.8572    3.4809   24.4312 C   0  0  0  0  0  0  0  0  0  0  0  0
    8.0155   -2.1541   22.4325 C   0  0  0  0  0  0  0  0  0  0  0  0
    6.9880   -1.9367   21.3575 C   0  0  0  0  0  0  0  0  0  0  0  0
    7.8737   -0.1194   23.8825 C   0  0  0  0  0  0  0  0  0  0  0  0
    8.6253   -0.7606   22.6923 C   0  0  3  0  0  0  0  0  0  0  0  0
    8.0937    2.2235   24.7641 C   0  0  0  0  0  0  0  0  0  0  0  0
    7.3837    1.9520   28.4592 C   0  0  0  0  0  0  0  0  0  0  0  0
    2.9225    5.3189   21.0325 C   0  0  0  0  0  0  0  0  0  0  0  0
    6.3072    0.3768   17.3417 N   0  0  0  0  0  0  0  0  0  0  0  0
    7.2305   -0.6898   20.7785 N   0  0  0  0  0  0  0  0  0  0  0  0
    8.6625    1.0133   24.4989 N   0  0  0  0  0  0  0  0  0  0  0  0
    7.9894    1.9860   27.1473 N   0  0  0  0  0  0  0  0  0  0  0  0
   10.3233    0.7301   26.1084 O   0  0  0  0  0  0  0  0  0  0  0  0
    8.8205    1.0412   21.0776 O   0  0  0  0  0  0  0  0  0  0  0  0
    6.0711    2.4522   25.9123 O   0  0  0  0  0  0  0  0  0  0  0  0
    1.2799    3.9325   19.5310 O   0  0  0  0  0  0  0  0  0  0  0  0
    1.3987    3.4375   21.9981 O   0  0  0  0  0  0  0  0  0  0  0  0
    2.0628    3.7877   20.7500 S   0  0  0  0  0  0  0  0  0  0  0  0
   13.4287   -2.1467   21.1125 Cl  0  0  0  0  0  0  0  0  0  0  0  0
    5.3127    0.4890   22.1568 H   0  0  0  0  0  0  0  0  0  0  0  0
   12.5188    0.5959   24.9712 H   0  0  0  0  0  0  0  0  0  0  0  0
    3.5274    2.1069   22.5215 H   0  0  0  0  0  0  0  0  0  0  0  0
   13.9920   -0.5225   23.3819 H   0  0  0  0  0  0  0  0  0  0  0  0
    3.3498    2.9707   18.3288 H   0  0  0  0  0  0  0  0  0  0  0  0
   10.6143   -2.0253   21.2265 H   0  0  0  0  0  0  0  0  0  0  0  0
    4.9155    1.7517   16.7470 H   0  0  0  0  0  0  0  0  0  0  0  0
    7.6461   -0.9756   18.1037 H   0  0  0  0  0  0  0  0  0  0  0  0
    6.7552    3.7072   23.7499 H   0  0  0  0  0  0  0  0  0  0  0  0
    7.8098    2.7620   22.6100 H   0  0  0  0  0  0  0  0  0  0  0  0
    9.8268    3.3863   23.9564 H   0  0  0  0  0  0  0  0  0  0  0  0
    8.7731    4.3325   25.0962 H   0  0  0  0  0  0  0  0  0  0  0  0
    7.5125   -2.5270   23.3387 H   0  0  0  0  0  0  0  0  0  0  0  0
    8.7589   -2.9107   22.1432 H   0  0  0  0  0  0  0  0  0  0  0  0
    7.0600   -2.7259   20.5720 H   0  0  0  0  0  0  0  0  0  0  0  0
    5.9527   -1.9961   21.7709 H   0  0  0  0  0  0  0  0  0  0  0  0
    6.9276    0.3247   23.5633 H   0  0  0  0  0  0  0  0  0  0  0  0
    7.6527   -0.8545   24.6567 H   0  0  0  0  0  0  0  0  0  0  0  0
    7.4071    2.9593   28.9006 H   0  0  0  0  0  0  0  0  0  0  0  0
    6.3405    1.6140   28.3726 H   0  0  0  0  0  0  0  0  0  0  0  0
    7.9423    1.2567   29.1029 H   0  0  0  0  0  0  0  0  0  0  0  0
    2.1840    6.0962   21.2349 H   0  0  0  0  0  0  0  0  0  0  0  0
    3.5853    5.1887   21.8893 H   0  0  0  0  0  0  0  0  0  0  0  0
    3.4973    5.5612   20.1374 H   0  0  0  0  0  0  0  0  0  0  0  0
    8.9884    1.8197   27.0716 H   0  0  0  0  0  0  0  0  0  0  0  0
  1  3  2  0  0  0  0
  1  9  1  0  0  0  0
  2  4  2  0  0  0  0
  2 11  1  0  0  0  0
  3 14  1  0  0  0  0
  4 15  1  0  0  0  0
  5 10  1  0  0  0  0
  5 14  2  0  0  0  0
  6 12  1  0  0  0  0
  6 15  2  0  0  0  0
  7 10  2  0  0  0  0
  7 28  1  0  0  0  0
  8 13  1  0  0  0  0
  8 28  2  0  0  0  0
  9 10  1  0  0  0  0
  9 13  2  0  0  0  0
 11 12  2  0  0  0  0
 11 16  1  0  0  0  0
 12 24  1  0  0  0  0
 13 29  1  0  0  0  0
 14 37  1  0  0  0  0
 15 38  1  0  0  0  0
 16 30  1  0  0  0  0
 16 32  2  0  0  0  0
 17 24  1  0  0  0  0
 17 29  1  0  0  0  0
 17 33  2  0  0  0  0
 18 25  1  0  0  0  0
 18 31  1  0  0  0  0
 18 34  2  0  0  0  0
 19 20  1  0  0  0  0
 19 25  1  0  0  0  0
 20 25  1  0  0  0  0
 21 22  1  0  0  0  0
 21 24  1  0  0  0  0
 22 29  1  0  0  0  0
 23 24  1  0  0  0  0
 23 30  1  0  0  0  0
 25 30  1  0  0  0  0
 26 31  1  0  0  0  0
 27 37  1  0  0  0  0
 35 37  2  0  0  0  0
 36 37  2  0  0  0  0
  1 39  1  0  0  0  0
  2 40  1  0  0  0  0
  3 41  1  0  0  0  0
  4 42  1  0  0  0  0
  5 43  1  0  0  0  0
  6 44  1  0  0  0  0
  7 45  1  0  0  0  0
  8 46  1  0  0  0  0
 19 47  1  0  0  0  0
 19 48  1  0  0  0  0
 20 49  1  0  0  0  0
 20 50  1  0  0  0  0
 21 51  1  0  0  0  0
 21 52  1  0  0  0  0
 22 53  1  0  0  0  0
 22 54  1  0  0  0  0
 23 55  1  0  0  0  0
 23 56  1  0  0  0  0
 26 57  1  0  0  0  0
 26 58  1  0  0  0  0
 26 59  1  0  0  0  0
 27 60  1  0  0  0  0
 27 61  1  0  0  0  0
 27 62  1  0  0  0  0
 31 63  1  0  0  0  0
M  END
> <scaffold>
tetrahydroisoquinoline-5spiro-isoquinoline

> <compound>
EDJ-MED-976a33d5-2

> <compound_smiles>
CNC(=O)C1(CC1)N2CC3(CCN(C3=O)c4cncc5c4ccc(c5)S(=O)(=O)C)c6cc(ccc6C2=O)Cl

> <enantiomer_smiles>
CNC(=O)C1(CC1)N2C[C@]3(CCN(C3=O)c4cncc5c4ccc(c5)S(=O)(=O)C)c6cc(ccc6C2=O)Cl

> <clash_score>
0.6378308035162963

> <docking_score>
3.4028234663852886e+38

> <overlap_score>
1.0

> <MMFF_internal_energy>
167.47190483333

> <docked_smiles>
CNC(=O)C1(CC1)N2C[C@]3(CCN(C3=O)c4cncc5c4ccc(c5)S(=O)(=O)C)c6cc(ccc6C2=O)Cl

$$$$
EDJ-MED-7e491f08-1_1
  -OEChem-01042202313D

 58 63  0     1  0  0  0  0  0999 V2000
    7.8890    5.6196   24.7248 C   0  0  0  0  0  0  0  0  0  0  0  0
    3.3444    2.6278   20.4409 C   0  0  0  0  0  0  0  0  0  0  0  0
    3.8974    1.9290   21.5048 C   0  0  0  0  0  0  0  0  0  0  0  0
    3.7877    2.4205   19.1658 C   0  0  0  0  0  0  0  0  0  0  0  0
    4.8986    1.0232   21.2985 C   0  0  0  0  0  0  0  0  0  0  0  0
   12.0781    0.0316   24.1532 C   0  0  0  0  0  0  0  0  0  0  0  0
   12.9147   -0.6032   23.2559 C   0  0  0  0  0  0  0  0  0  0  0  0
   11.0005   -1.4332   22.0435 C   0  0  0  0  0  0  0  0  0  0  0  0
    5.3288    1.2339   17.6062 C   0  0  0  0  0  0  0  0  0  0  0  0
    6.8449   -0.2893   18.3747 C   0  0  0  0  0  0  0  0  0  0  0  0
    4.8238    1.4906   18.9051 C   0  0  0  0  0  0  0  0  0  0  0  0
    5.3995    0.7732   19.9944 C   0  0  0  0  0  0  0  0  0  0  0  0
   10.7056   -0.0626   23.9890 C   0  0  0  0  0  0  0  0  0  0  0  0
   10.1421   -0.7766   22.9242 C   0  0  0  0  0  0  0  0  0  0  0  0
    6.4452   -0.1472   19.6975 C   0  0  0  0  0  0  0  0  0  0  0  0
   12.3697   -1.3298   22.2224 C   0  0  0  0  0  0  0  0  0  0  0  0
    8.2504    0.0168   21.4265 C   0  0  0  0  0  0  0  0  0  0  0  0
    9.9496    0.5589   24.9527 C   0  0  0  0  0  0  0  0  0  0  0  0
    6.2085    4.9717   26.4889 C   0  0  0  0  0  0  0  0  0  0  0  0
    5.6819    4.4860   25.1708 C   0  0  0  0  0  0  0  0  0  0  0  0
    7.8737   -0.1194   23.8825 C   0  0  0  0  0  0  0  0  0  0  0  0
    6.9880   -1.9367   21.3575 C   0  0  0  0  0  0  0  0  0  0  0  0
    7.1748    4.5662   25.3986 C   0  0  0  0  0  0  0  0  0  0  0  0
    8.6253   -0.7606   22.6923 C   0  0  1  0  0  0  0  0  0  0  0  0
    8.0155   -2.1541   22.4325 C   0  0  0  0  0  0  0  0  0  0  0  0
    7.9393    3.2726   25.5699 C   0  0  0  0  0  0  0  0  0  0  0  0
    8.4644    6.4683   24.1819 N   0  0  0  0  0  0  0  0  0  0  0  0
    6.3072    0.3768   17.3417 N   0  0  0  0  0  0  0  0  0  0  0  0
    7.2305   -0.6898   20.7785 N   0  0  0  0  0  0  0  0  0  0  0  0
    8.6625    1.0133   24.4989 N   0  0  3  0  0  0  0  0  0  0  0  0
    8.7626    1.0917   21.1186 O   0  0  0  0  0  0  0  0  0  0  0  0
    7.2369    2.5987   23.1451 O   0  0  0  0  0  0  0  0  0  0  0  0
    9.6540    3.1780   23.6005 O   0  0  0  0  0  0  0  0  0  0  0  0
    7.4767   -2.6947   23.5441 F   0  0  0  0  0  0  0  0  0  0  0  0
    8.9188   -3.0401   21.9469 F   0  0  0  0  0  0  0  0  0  0  0  0
    8.4011    2.5774   24.0040 S   0  0  0  0  0  0  0  0  0  0  0  0
   13.4287   -2.1420   21.1086 Cl  0  0  0  0  0  0  0  0  0  0  0  0
    2.5443    3.3508   20.6368 H   0  0  0  0  0  0  0  0  0  0  0  0
    3.5189    2.1137   22.5166 H   0  0  0  0  0  0  0  0  0  0  0  0
    3.3421    2.9744   18.3363 H   0  0  0  0  0  0  0  0  0  0  0  0
    5.3131    0.4893   22.1569 H   0  0  0  0  0  0  0  0  0  0  0  0
   12.5039    0.5953   24.9753 H   0  0  0  0  0  0  0  0  0  0  0  0
   13.9926   -0.5207   23.3803 H   0  0  0  0  0  0  0  0  0  0  0  0
   10.6060   -2.0233   21.2287 H   0  0  0  0  0  0  0  0  0  0  0  0
    4.9151    1.7511   16.7471 H   0  0  0  0  0  0  0  0  0  0  0  0
    7.6455   -0.9765   18.1038 H   0  0  0  0  0  0  0  0  0  0  0  0
    9.7606   -0.1275   25.8164 H   0  0  0  0  0  0  0  0  0  0  0  0
   10.4938    1.4401   25.3785 H   0  0  0  0  0  0  0  0  0  0  0  0
    6.0888    6.0242   26.7203 H   0  0  0  0  0  0  0  0  0  0  0  0
    6.0927    4.3204   27.3474 H   0  0  0  0  0  0  0  0  0  0  0  0
    5.2123    3.5094   25.1468 H   0  0  0  0  0  0  0  0  0  0  0  0
    5.2090    5.2135   24.5209 H   0  0  0  0  0  0  0  0  0  0  0  0
    6.8905    0.2793   23.5672 H   0  0  0  0  0  0  0  0  0  0  0  0
    7.6576   -0.8679   24.6654 H   0  0  0  0  0  0  0  0  0  0  0  0
    7.0386   -2.7448   20.5863 H   0  0  0  0  0  0  0  0  0  0  0  0
    5.9508   -1.9624   21.7740 H   0  0  0  0  0  0  0  0  0  0  0  0
    7.3325    2.5250   26.0881 H   0  0  0  0  0  0  0  0  0  0  0  0
    8.8611    3.4347   26.1352 H   0  0  0  0  0  0  0  0  0  0  0  0
  1 23  1  0  0  0  0
  1 27  3  0  0  0  0
  2  3  2  0  0  0  0
  2  4  1  0  0  0  0
  3  5  1  0  0  0  0
  4 11  2  0  0  0  0
  5 12  2  0  0  0  0
  6  7  2  0  0  0  0
  6 13  1  0  0  0  0
  7 16  1  0  0  0  0
  8 14  1  0  0  0  0
  8 16  2  0  0  0  0
  9 11  1  0  0  0  0
  9 28  2  0  0  0  0
 10 15  2  0  0  0  0
 10 28  1  0  0  0  0
 11 12  1  0  0  0  0
 12 15  1  0  0  0  0
 13 14  2  0  0  0  0
 13 18  1  0  0  0  0
 14 24  1  6  0  0  0
 15 29  1  0  0  0  0
 16 37  1  0  0  0  0
 17 24  1  1  0  0  0
 17 29  1  0  0  0  0
 17 31  2  0  0  0  0
 18 30  1  0  0  0  0
 19 20  1  0  0  0  0
 19 23  1  0  0  0  0
 20 23  1  0  0  0  0
 21 24  1  6  0  0  0
 21 30  1  0  0  0  0
 22 25  1  0  0  0  0
 22 29  1  0  0  0  0
 23 26  1  0  0  0  0
 24 25  1  1  0  0  0
 25 34  1  0  0  0  0
 25 35  1  0  0  0  0
 26 36  1  0  0  0  0
 30 36  1  0  0  0  0
 32 36  2  0  0  0  0
 33 36  2  0  0  0  0
  2 38  1  0  0  0  0
  3 39  1  0  0  0  0
  4 40  1  0  0  0  0
  5 41  1  0  0  0  0
  6 42  1  0  0  0  0
  7 43  1  0  0  0  0
  8 44  1  0  0  0  0
  9 45  1  0  0  0  0
 10 46  1  0  0  0  0
 18 47  1  0  0  0  0
 18 48  1  0  0  0  0
 19 49  1  0  0  0  0
 19 50  1  0  0  0  0
 20 51  1  0  0  0  0
 20 52  1  0  0  0  0
 21 53  1  0  0  0  0
 21 54  1  0  0  0  0
 22 55  1  0  0  0  0
 22 56  1  0  0  0  0
 26 57  1  0  0  0  0
 26 58  1  0  0  0  0
M  END
> <scaffold>
tetrahydroisoquinoline-5spiro-isoquinoline

> <compound>
EDJ-MED-7e491f08-1

> <compound_smiles>
c1ccc2c(c1)cncc2N3CC([C@@]4(C3=O)CN(Cc5c4cc(cc5)Cl)S(=O)(=O)CC6(CC6)C#N)(F)F

> <enantiomer_smiles>
c1ccc2c(c1)cncc2N3CC([C@@]4(C3=O)C[N@@](Cc5c4cc(cc5)Cl)S(=O)(=O)CC6(CC6)C#N)(F)F

> <clash_score>
0

> <docking_score>
3.4028234663852886e+38

> <overlap_score>
1.0

> <MMFF_internal_energy>
126.50681380748695

> <docked_smiles>
c1ccc2c(c1)cncc2N3CC([C@@]4(C3=O)C[N@@](Cc5c4cc(cc5)Cl)S(=O)(=O)CC6(CC6)C#N)(F)F

$$$$
VLA-UNK-f2612802-1_1
  -OEChem-01042202313D

 57 61  0     1  0  0  0  0  0999 V2000
    3.3444    2.6278   20.4409 C   0  0  0  0  0  0  0  0  0  0  0  0
    3.8974    1.9290   21.5048 C   0  0  0  0  0  0  0  0  0  0  0  0
    3.7877    2.4205   19.1658 C   0  0  0  0  0  0  0  0  0  0  0  0
    4.8986    1.0232   21.2985 C   0  0  0  0  0  0  0  0  0  0  0  0
   12.0781    0.0316   24.1532 C   0  0  0  0  0  0  0  0  0  0  0  0
   12.9147   -0.6032   23.2559 C   0  0  0  0  0  0  0  0  0  0  0  0
   11.0005   -1.4332   22.0435 C   0  0  0  0  0  0  0  0  0  0  0  0
    5.3288    1.2339   17.6062 C   0  0  0  0  0  0  0  0  0  0  0  0
    6.8449   -0.2893   18.3747 C   0  0  0  0  0  0  0  0  0  0  0  0
    4.8238    1.4906   18.9051 C   0  0  0  0  0  0  0  0  0  0  0  0
    5.3995    0.7732   19.9944 C   0  0  0  0  0  0  0  0  0  0  0  0
   10.1421   -0.7766   22.9242 C   0  0  0  0  0  0  0  0  0  0  0  0
    6.4452   -0.1472   19.6975 C   0  0  0  0  0  0  0  0  0  0  0  0
   10.7056   -0.0626   23.9890 C   0  0  0  0  0  0  0  0  0  0  0  0
   12.3697   -1.3298   22.2224 C   0  0  0  0  0  0  0  0  0  0  0  0
    8.2504    0.0168   21.4265 C   0  0  0  0  0  0  0  0  0  0  0  0
    8.1841    3.3768   24.6783 C   0  0  0  0  0  0  0  0  0  0  0  0
    8.0155   -2.1541   22.4325 C   0  0  0  0  0  0  0  0  0  0  0  0
    6.9880   -1.9367   21.3575 C   0  0  0  0  0  0  0  0  0  0  0  0
    7.8737   -0.1194   23.8825 C   0  0  1  0  0  0  0  0  0  0  0  0
    8.6253   -0.7606   22.6923 C   0  0  1  0  0  0  0  0  0  0  0  0
    7.2580    3.7410   26.9638 C   0  0  0  0  0  0  0  0  0  0  0  0
    8.4556    2.2635   23.6991 C   0  0  0  0  0  0  0  0  0  0  0  0
    7.4482   -1.0444   25.0089 C   0  0  0  0  0  0  0  0  0  0  0  0
    6.3072    0.3768   17.3417 N   0  0  0  0  0  0  0  0  0  0  0  0
    7.2305   -0.6898   20.7785 N   0  0  0  0  0  0  0  0  0  0  0  0
    8.6625    1.0133   24.4989 N   0  0  3  0  0  0  0  0  0  0  0  0
    7.6191    2.8939   25.8499 N   0  0  0  0  0  0  0  0  0  0  0  0
    8.8270    1.0305   21.0542 O   0  0  0  0  0  0  0  0  0  0  0  0
    8.4408    4.5558   24.4492 O   0  0  0  0  0  0  0  0  0  0  0  0
   10.7284    1.8076   25.5511 O   0  0  0  0  0  0  0  0  0  0  0  0
    9.7533   -0.4227   26.1832 O   0  0  0  0  0  0  0  0  0  0  0  0
    6.6168   -1.9923   24.5527 F   0  0  0  0  0  0  0  0  0  0  0  0
    8.5279   -1.6318   25.5447 F   0  0  0  0  0  0  0  0  0  0  0  0
    6.8215   -0.3343   25.9580 F   0  0  0  0  0  0  0  0  0  0  0  0
    9.9496    0.5589   24.9527 S   0  0  0  0  0  0  0  0  0  0  0  0
   13.4298   -2.1506   21.1167 Cl  0  0  0  0  0  0  0  0  0  0  0  0
    2.5443    3.3508   20.6368 H   0  0  0  0  0  0  0  0  0  0  0  0
    3.5189    2.1137   22.5166 H   0  0  0  0  0  0  0  0  0  0  0  0
    3.3421    2.9744   18.3363 H   0  0  0  0  0  0  0  0  0  0  0  0
    5.3131    0.4893   22.1569 H   0  0  0  0  0  0  0  0  0  0  0  0
   12.5173    0.5974   24.9755 H   0  0  0  0  0  0  0  0  0  0  0  0
   13.9922   -0.5172   23.3798 H   0  0  0  0  0  0  0  0  0  0  0  0
   10.6226   -2.0305   21.2294 H   0  0  0  0  0  0  0  0  0  0  0  0
    4.9151    1.7511   16.7471 H   0  0  0  0  0  0  0  0  0  0  0  0
    7.6455   -0.9765   18.1038 H   0  0  0  0  0  0  0  0  0  0  0  0
    7.5036   -2.5585   23.3112 H   0  0  0  0  0  0  0  0  0  0  0  0
    8.7387   -2.9082   22.1056 H   0  0  0  0  0  0  0  0  0  0  0  0
    7.0582   -2.7244   20.5705 H   0  0  0  0  0  0  0  0  0  0  0  0
    5.9522   -1.9941   21.7692 H   0  0  0  0  0  0  0  0  0  0  0  0
    6.9642    0.3327   23.4888 H   0  0  0  0  0  0  0  0  0  0  0  0
    8.1127    3.8286   27.6507 H   0  0  0  0  0  0  0  0  0  0  0  0
    6.9832    4.7389   26.5914 H   0  0  0  0  0  0  0  0  0  0  0  0
    6.4028    3.3003   27.4972 H   0  0  0  0  0  0  0  0  0  0  0  0
    7.5818    2.1157   23.0576 H   0  0  0  0  0  0  0  0  0  0  0  0
    9.3209    2.5171   23.0797 H   0  0  0  0  0  0  0  0  0  0  0  0
    7.4509    1.8951   25.9287 H   0  0  0  0  0  0  0  0  0  0  0  0
  1  2  2  0  0  0  0
  1  3  1  0  0  0  0
  2  4  1  0  0  0  0
  3 10  2  0  0  0  0
  4 11  2  0  0  0  0
  5  6  2  0  0  0  0
  5 14  1  0  0  0  0
  6 15  1  0  0  0  0
  7 12  1  0  0  0  0
  7 15  2  0  0  0  0
  8 10  1  0  0  0  0
  8 25  2  0  0  0  0
  9 13  2  0  0  0  0
  9 25  1  0  0  0  0
 10 11  1  0  0  0  0
 11 13  1  0  0  0  0
 12 14  2  0  0  0  0
 12 21  1  1  0  0  0
 13 26  1  0  0  0  0
 14 36  1  0  0  0  0
 15 37  1  0  0  0  0
 16 21  1  1  0  0  0
 16 26  1  0  0  0  0
 16 29  2  0  0  0  0
 17 23  1  0  0  0  0
 17 28  1  0  0  0  0
 17 30  2  0  0  0  0
 18 19  1  0  0  0  0
 18 21  1  6  0  0  0
 19 26  1  0  0  0  0
 20 21  1  6  0  0  0
 20 24  1  1  0  0  0
 20 27  1  0  0  0  0
 22 28  1  0  0  0  0
 23 27  1  0  0  0  0
 24 33  1  0  0  0  0
 24 34  1  0  0  0  0
 24 35  1  0  0  0  0
 27 36  1  0  0  0  0
 31 36  2  0  0  0  0
 32 36  2  0  0  0  0
  1 38  1  0  0  0  0
  2 39  1  0  0  0  0
  3 40  1  0  0  0  0
  4 41  1  0  0  0  0
  5 42  1  0  0  0  0
  6 43  1  0  0  0  0
  7 44  1  0  0  0  0
  8 45  1  0  0  0  0
  9 46  1  0  0  0  0
 18 47  1  0  0  0  0
 18 48  1  0  0  0  0
 19 49  1  0  0  0  0
 19 50  1  0  0  0  0
 20 51  1  0  0  0  0
 22 52  1  0  0  0  0
 22 53  1  0  0  0  0
 22 54  1  0  0  0  0
 23 55  1  0  0  0  0
 23 56  1  0  0  0  0
 28 57  1  0  0  0  0
M  END
> <scaffold>
tetralinlike-5spiro-isoquinoline

> <compound>
VLA-UNK-f2612802-1

> <compound_smiles>
CNC(=O)CN1C([C@]2(CCN(C2=O)c3cncc4c3cccc4)c5cc(ccc5S1(=O)=O)Cl)C(F)(F)F

> <enantiomer_smiles>
CNC(=O)C[N@@]1[C@@H]([C@]2(CCN(C2=O)c3cncc4c3cccc4)c5cc(ccc5S1(=O)=O)Cl)C(F)(F)F

> <clash_score>
0.7280231345423266

> <docking_score>
3.4028234663852886e+38

> <overlap_score>
1.0

> <MMFF_internal_energy>
308.5045427857952

> <docked_smiles>
CNC(=O)C[N@]1[C@@H]([C@]2(CCN(C2=O)c3cncc4c3cccc4)c5cc(ccc5S1(=O)=O)Cl)C(F)(F)F

$$$$
MAT-POS-38eb6498-3_1
  -OEChem-01042202313D

 71 75  0     1  0  0  0  0  0999 V2000
    3.7877    2.4205   19.1658 C   0  0  0  0  0  0  0  0  0  0  0  0
   12.0781    0.0316   24.1532 C   0  0  0  0  0  0  0  0  0  0  0  0
    3.3444    2.6278   20.4409 C   0  0  0  0  0  0  0  0  0  0  0  0
   12.9147   -0.6032   23.2559 C   0  0  0  0  0  0  0  0  0  0  0  0
    4.8986    1.0232   21.2985 C   0  0  0  0  0  0  0  0  0  0  0  0
   11.0005   -1.4332   22.0435 C   0  0  0  0  0  0  0  0  0  0  0  0
    5.3288    1.2339   17.6062 C   0  0  0  0  0  0  0  0  0  0  0  0
    6.8449   -0.2893   18.3747 C   0  0  0  0  0  0  0  0  0  0  0  0
    4.8238    1.4906   18.9051 C   0  0  0  0  0  0  0  0  0  0  0  0
    5.3995    0.7732   19.9944 C   0  0  0  0  0  0  0  0  0  0  0  0
   10.7056   -0.0626   23.9890 C   0  0  0  0  0  0  0  0  0  0  0  0
   10.1421   -0.7766   22.9242 C   0  0  0  0  0  0  0  0  0  0  0  0
    6.4452   -0.1472   19.6975 C   0  0  0  0  0  0  0  0  0  0  0  0
    3.8974    1.9290   21.5048 C   0  0  0  0  0  0  0  0  0  0  0  0
   12.3697   -1.3298   22.2224 C   0  0  0  0  0  0  0  0  0  0  0  0
    8.2504    0.0168   21.4265 C   0  0  0  0  0  0  0  0  0  0  0  0
    6.7850    2.6041   25.0047 C   0  0  0  0  0  0  0  0  0  0  0  0
    9.9496    0.5589   24.9527 C   0  0  0  0  0  0  0  0  0  0  0  0
    8.0155   -2.1541   22.4325 C   0  0  0  0  0  0  0  0  0  0  0  0
    6.9880   -1.9367   21.3575 C   0  0  0  0  0  0  0  0  0  0  0  0
    7.8737   -0.1194   23.8825 C   0  0  0  0  0  0  0  0  0  0  0  0
    8.6253   -0.7606   22.6923 C   0  0  3  0  0  0  0  0  0  0  0  0
    6.4916    4.5845   23.5453 C   0  0  0  0  0  0  0  0  0  0  0  0
    2.2732    4.1752   25.2635 C   0  0  0  0  0  0  0  0  0  0  0  0
    1.8227    2.1835   26.6886 C   0  0  0  0  0  0  0  0  0  0  0  0
    7.8612    1.7144   25.5743 C   0  0  0  0  0  0  0  0  0  0  0  0
    1.5101    2.0457   24.2220 C   0  0  0  0  0  0  0  0  0  0  0  0
    2.0567    2.5435   22.8985 C   0  0  0  0  0  0  0  0  0  0  0  0
    6.3072    0.3768   17.3417 N   0  0  0  0  0  0  0  0  0  0  0  0
    7.2305   -0.6898   20.7785 N   0  0  0  0  0  0  0  0  0  0  0  0
    7.3198    3.6044   24.2067 N   0  0  0  0  0  0  0  0  0  0  0  0
    8.6625    1.0133   24.4989 N   0  3  3  0  0  0  0  0  0  0  0  0
    2.2736    2.6681   25.3328 N   0  3  0  0  0  0  0  0  0  0  0  0
    8.8307    1.0396   21.0789 O   0  0  0  0  0  0  0  0  0  0  0  0
    5.5885    2.4445   25.2311 O   0  0  0  0  0  0  0  0  0  0  0  0
    3.4243    2.1582   22.7713 O   0  0  0  0  0  0  0  0  0  0  0  0
   13.4286   -2.1403   21.1072 Cl  0  0  0  0  0  0  0  0  0  0  0  0
    3.3418    2.9747   18.3367 H   0  0  0  0  0  0  0  0  0  0  0  0
   12.5040    0.5973   24.9741 H   0  0  0  0  0  0  0  0  0  0  0  0
    2.5418    3.3504   20.6305 H   0  0  0  0  0  0  0  0  0  0  0  0
   13.9926   -0.5176   23.3780 H   0  0  0  0  0  0  0  0  0  0  0  0
    5.3175    0.4856   22.1531 H   0  0  0  0  0  0  0  0  0  0  0  0
   10.6057   -2.0168   21.2239 H   0  0  0  0  0  0  0  0  0  0  0  0
    4.9141    1.7513   16.7475 H   0  0  0  0  0  0  0  0  0  0  0  0
    7.6459   -0.9759   18.1036 H   0  0  0  0  0  0  0  0  0  0  0  0
    9.7630   -0.1207   25.8244 H   0  0  0  0  0  0  0  0  0  0  0  0
   10.4585    1.4662   25.3691 H   0  0  0  0  0  0  0  0  0  0  0  0
    7.5159   -2.5477   23.3319 H   0  0  0  0  0  0  0  0  0  0  0  0
    8.7613   -2.9061   22.1409 H   0  0  0  0  0  0  0  0  0  0  0  0
    7.0594   -2.7244   20.5709 H   0  0  0  0  0  0  0  0  0  0  0  0
    5.9531   -1.9957   21.7710 H   0  0  0  0  0  0  0  0  0  0  0  0
    6.8972    0.2930   23.5750 H   0  0  0  0  0  0  0  0  0  0  0  0
    7.6778   -0.8486   24.6901 H   0  0  0  0  0  0  0  0  0  0  0  0
    6.2299    4.2252   22.5391 H   0  0  0  0  0  0  0  0  0  0  0  0
    5.5725    4.7415   24.1290 H   0  0  0  0  0  0  0  0  0  0  0  0
    7.0411    5.5339   23.4641 H   0  0  0  0  0  0  0  0  0  0  0  0
    1.2401    4.5137   25.3607 H   0  0  0  0  0  0  0  0  0  0  0  0
    2.8874    4.5477   26.0856 H   0  0  0  0  0  0  0  0  0  0  0  0
    2.6920    4.4654   24.2980 H   0  0  0  0  0  0  0  0  0  0  0  0
    0.7794    2.4769   26.8180 H   0  0  0  0  0  0  0  0  0  0  0  0
    1.9305    1.0973   26.7080 H   0  0  0  0  0  0  0  0  0  0  0  0
    2.4589    2.6546   27.4403 H   0  0  0  0  0  0  0  0  0  0  0  0
    7.4204    0.9331   26.1997 H   0  0  0  0  0  0  0  0  0  0  0  0
    8.5777    2.3054   26.1514 H   0  0  0  0  0  0  0  0  0  0  0  0
    1.6270    0.9643   24.3356 H   0  0  0  0  0  0  0  0  0  0  0  0
    0.4643    2.3321   24.3611 H   0  0  0  0  0  0  0  0  0  0  0  0
    1.4999    2.0902   22.0724 H   0  0  0  0  0  0  0  0  0  0  0  0
    1.9846    3.6329   22.8152 H   0  0  0  0  0  0  0  0  0  0  0  0
    8.3273    3.6730   24.0956 H   0  0  0  0  0  0  0  0  0  0  0  0
    8.7953    1.7233   23.7550 H   0  0  0  0  0  0  0  0  0  0  0  0
    3.2615    2.3771   25.2384 H   0  0  0  0  0  0  0  0  0  0  0  0
  1  3  2  0  0  0  0
  1  9  1  0  0  0  0
  2  4  2  0  0  0  0
  2 11  1  0  0  0  0
  3 14  1  0  0  0  0
  4 15  1  0  0  0  0
  5 10  1  0  0  0  0
  5 14  2  0  0  0  0
  6 12  1  0  0  0  0
  6 15  2  0  0  0  0
  7  9  2  0  0  0  0
  7 29  1  0  0  0  0
  8 13  1  0  0  0  0
  8 29  2  0  0  0  0
  9 10  1  0  0  0  0
 10 13  2  0  0  0  0
 11 12  2  0  0  0  0
 11 18  1  0  0  0  0
 12 22  1  0  0  0  0
 13 30  1  0  0  0  0
 14 36  1  0  0  0  0
 15 37  1  0  0  0  0
 16 22  1  0  0  0  0
 16 30  1  0  0  0  0
 16 34  2  0  0  0  0
 17 26  1  0  0  0  0
 17 31  1  0  0  0  0
 17 35  2  0  0  0  0
 18 32  1  0  0  0  0
 19 20  1  0  0  0  0
 19 22  1  0  0  0  0
 20 30  1  0  0  0  0
 21 22  1  0  0  0  0
 21 32  1  0  0  0  0
 23 31  1  0  0  0  0
 24 33  1  0  0  0  0
 25 33  1  0  0  0  0
 26 32  1  0  0  0  0
 27 28  1  0  0  0  0
 27 33  1  0  0  0  0
 28 36  1  0  0  0  0
  1 38  1  0  0  0  0
  2 39  1  0  0  0  0
  3 40  1  0  0  0  0
  4 41  1  0  0  0  0
  5 42  1  0  0  0  0
  6 43  1  0  0  0  0
  7 44  1  0  0  0  0
  8 45  1  0  0  0  0
 18 46  1  0  0  0  0
 18 47  1  0  0  0  0
 19 48  1  0  0  0  0
 19 49  1  0  0  0  0
 20 50  1  0  0  0  0
 20 51  1  0  0  0  0
 21 52  1  0  0  0  0
 21 53  1  0  0  0  0
 23 54  1  0  0  0  0
 23 55  1  0  0  0  0
 23 56  1  0  0  0  0
 24 57  1  0  0  0  0
 24 58  1  0  0  0  0
 24 59  1  0  0  0  0
 25 60  1  0  0  0  0
 25 61  1  0  0  0  0
 25 62  1  0  0  0  0
 26 63  1  0  0  0  0
 26 64  1  0  0  0  0
 27 65  1  0  0  0  0
 27 66  1  0  0  0  0
 28 67  1  0  0  0  0
 28 68  1  0  0  0  0
 31 69  1  0  0  0  0
 32 70  1  0  0  0  0
 33 71  1  0  0  0  0
M  CHG  2  32   1  33   1
M  END
> <scaffold>
tetrahydroisoquinoline-5spiro-isoquinoline

> <compound>
MAT-POS-38eb6498-3

> <compound_smiles>
CNC(=O)CN1Cc2ccc(cc2C3(C1)CCN(C3=O)c4cncc5c4cc(cc5)OCCN(C)C)Cl

> <enantiomer_smiles>
CNC(=O)C[N@]1Cc2ccc(cc2[C@@]3(C1)CCN(C3=O)c4cncc5c4cc(cc5)OCCN(C)C)Cl

> <clash_score>
0

> <docking_score>
3.4028234663852886e+38

> <overlap_score>
0.9799607992172241

> <MMFF_internal_energy>
223.3622541562501

> <docked_smiles>
CNC(=O)C[N@H+]1Cc2ccc(cc2[C@@]3(C1)CCN(C3=O)c4cncc5c4cc(cc5)OCC[NH+](C)C)Cl

$$$$
MAT-POS-50a80394-2_2
  -OEChem-01042202313D

 64 69  0     1  0  0  0  0  0999 V2000
    8.6686    5.6500   23.5209 C   0  0  0  0  0  0  0  0  0  0  0  0
    3.3444    2.6278   20.4409 C   0  0  0  0  0  0  0  0  0  0  0  0
    3.8974    1.9290   21.5048 C   0  0  0  0  0  0  0  0  0  0  0  0
    3.7877    2.4205   19.1658 C   0  0  0  0  0  0  0  0  0  0  0  0
    4.8986    1.0232   21.2985 C   0  0  0  0  0  0  0  0  0  0  0  0
   12.0781    0.0316   24.1532 C   0  0  0  0  0  0  0  0  0  0  0  0
   12.9147   -0.6032   23.2559 C   0  0  0  0  0  0  0  0  0  0  0  0
   11.0005   -1.4332   22.0435 C   0  0  0  0  0  0  0  0  0  0  0  0
    5.3288    1.2339   17.6062 C   0  0  0  0  0  0  0  0  0  0  0  0
    6.8449   -0.2893   18.3747 C   0  0  0  0  0  0  0  0  0  0  0  0
    4.8238    1.4906   18.9051 C   0  0  0  0  0  0  0  0  0  0  0  0
    5.3995    0.7732   19.9944 C   0  0  0  0  0  0  0  0  0  0  0  0
   10.7056   -0.0626   23.9890 C   0  0  0  0  0  0  0  0  0  0  0  0
   10.1421   -0.7766   22.9242 C   0  0  0  0  0  0  0  0  0  0  0  0
    6.4452   -0.1472   19.6975 C   0  0  0  0  0  0  0  0  0  0  0  0
   12.3697   -1.3298   22.2224 C   0  0  0  0  0  0  0  0  0  0  0  0
    8.2504    0.0168   21.4265 C   0  0  0  0  0  0  0  0  0  0  0  0
    9.9496    0.5589   24.9527 C   0  0  0  0  0  0  0  0  0  0  0  0
    7.0397    5.7904   25.4399 C   0  0  0  0  0  0  0  0  0  0  0  0
    6.3443    5.0823   24.3149 C   0  0  0  0  0  0  0  0  0  0  0  0
    6.9880   -1.9367   21.3575 C   0  0  0  0  0  0  0  0  0  0  0  0
    7.8737   -0.1194   23.8825 C   0  0  0  0  0  0  0  0  0  0  0  0
    8.0155   -2.1541   22.4325 C   0  0  1  0  0  0  0  0  0  0  0  0
    7.8428    4.9513   24.4715 C   0  0  0  0  0  0  0  0  0  0  0  0
    8.6253   -0.7606   22.6923 C   0  0  3  0  0  0  0  0  0  0  0  0
    6.8262   -4.2020   23.2573 C   0  0  0  0  0  0  0  0  0  0  0  0
    7.4314   -2.8908   23.6445 C   0  0  0  0  0  0  0  0  0  0  0  0
    8.3948    3.6313   24.9613 C   0  0  0  0  0  0  0  0  0  0  0  0
    9.3340    6.2130   22.7550 N   0  0  0  0  0  0  0  0  0  0  0  0
    6.3072    0.3768   17.3417 N   0  0  0  0  0  0  0  0  0  0  0  0
    7.2305   -0.6898   20.7785 N   0  0  0  0  0  0  0  0  0  0  0  0
    8.6625    1.0133   24.4989 N   0  0  3  0  0  0  0  0  0  0  0  0
    8.7557    1.0946   21.1304 O   0  0  0  0  0  0  0  0  0  0  0  0
    7.4199    2.5010   22.8167 O   0  0  0  0  0  0  0  0  0  0  0  0
    9.9266    2.7156   23.0527 O   0  0  0  0  0  0  0  0  0  0  0  0
    8.6188    2.4841   23.6263 S   0  0  0  0  0  0  0  0  0  0  0  0
   13.4286   -2.1414   21.1079 Cl  0  0  0  0  0  0  0  0  0  0  0  0
    2.5443    3.3508   20.6368 H   0  0  0  0  0  0  0  0  0  0  0  0
    3.5189    2.1137   22.5166 H   0  0  0  0  0  0  0  0  0  0  0  0
    3.3421    2.9744   18.3363 H   0  0  0  0  0  0  0  0  0  0  0  0
    5.3131    0.4893   22.1569 H   0  0  0  0  0  0  0  0  0  0  0  0
   12.5042    0.5943   24.9755 H   0  0  0  0  0  0  0  0  0  0  0  0
   13.9926   -0.5203   23.3798 H   0  0  0  0  0  0  0  0  0  0  0  0
   10.6061   -2.0197   21.2259 H   0  0  0  0  0  0  0  0  0  0  0  0
    4.9151    1.7511   16.7471 H   0  0  0  0  0  0  0  0  0  0  0  0
    7.6455   -0.9765   18.1038 H   0  0  0  0  0  0  0  0  0  0  0  0
    9.7598   -0.1289   25.8167 H   0  0  0  0  0  0  0  0  0  0  0  0
   10.4951    1.4385   25.3838 H   0  0  0  0  0  0  0  0  0  0  0  0
    7.1122    6.8708   25.3846 H   0  0  0  0  0  0  0  0  0  0  0  0
    6.8822    5.4146   26.4443 H   0  0  0  0  0  0  0  0  0  0  0  0
    5.7201    4.2325   24.5661 H   0  0  0  0  0  0  0  0  0  0  0  0
    5.9507    5.6892   23.5075 H   0  0  0  0  0  0  0  0  0  0  0  0
    7.0317   -2.7465   20.5874 H   0  0  0  0  0  0  0  0  0  0  0  0
    5.9459   -1.9500   21.7624 H   0  0  0  0  0  0  0  0  0  0  0  0
    6.8983    0.2870   23.5660 H   0  0  0  0  0  0  0  0  0  0  0  0
    7.6554   -0.8679   24.6591 H   0  0  0  0  0  0  0  0  0  0  0  0
    8.7908   -2.8268   22.0172 H   0  0  0  0  0  0  0  0  0  0  0  0
    6.0389   -4.0409   22.5115 H   0  0  0  0  0  0  0  0  0  0  0  0
    6.3757   -4.6947   24.1254 H   0  0  0  0  0  0  0  0  0  0  0  0
    7.5799   -4.8640   22.8180 H   0  0  0  0  0  0  0  0  0  0  0  0
    8.2163   -3.0582   24.3889 H   0  0  0  0  0  0  0  0  0  0  0  0
    6.6666   -2.2602   24.1088 H   0  0  0  0  0  0  0  0  0  0  0  0
    7.7132    3.1636   25.6772 H   0  0  0  0  0  0  0  0  0  0  0  0
    9.3699    3.7670   25.4369 H   0  0  0  0  0  0  0  0  0  0  0  0
  1 24  1  0  0  0  0
  1 29  3  0  0  0  0
  2  3  2  0  0  0  0
  2  4  1  0  0  0  0
  3  5  1  0  0  0  0
  4 11  2  0  0  0  0
  5 12  2  0  0  0  0
  6  7  2  0  0  0  0
  6 13  1  0  0  0  0
  7 16  1  0  0  0  0
  8 14  1  0  0  0  0
  8 16  2  0  0  0  0
  9 11  1  0  0  0  0
  9 30  2  0  0  0  0
 10 15  2  0  0  0  0
 10 30  1  0  0  0  0
 11 12  1  0  0  0  0
 12 15  1  0  0  0  0
 13 14  2  0  0  0  0
 13 18  1  0  0  0  0
 14 25  1  0  0  0  0
 15 31  1  0  0  0  0
 16 37  1  0  0  0  0
 17 25  1  0  0  0  0
 17 31  1  0  0  0  0
 17 33  2  0  0  0  0
 18 32  1  0  0  0  0
 19 20  1  0  0  0  0
 19 24  1  0  0  0  0
 20 24  1  0  0  0  0
 21 23  1  0  0  0  0
 21 31  1  0  0  0  0
 22 25  1  0  0  0  0
 22 32  1  0  0  0  0
 23 25  1  0  0  0  0
 23 27  1  6  0  0  0
 24 28  1  0  0  0  0
 26 27  1  0  0  0  0
 28 36  1  0  0  0  0
 32 36  1  0  0  0  0
 34 36  2  0  0  0  0
 35 36  2  0  0  0  0
  2 38  1  0  0  0  0
  3 39  1  0  0  0  0
  4 40  1  0  0  0  0
  5 41  1  0  0  0  0
  6 42  1  0  0  0  0
  7 43  1  0  0  0  0
  8 44  1  0  0  0  0
  9 45  1  0  0  0  0
 10 46  1  0  0  0  0
 18 47  1  0  0  0  0
 18 48  1  0  0  0  0
 19 49  1  0  0  0  0
 19 50  1  0  0  0  0
 20 51  1  0  0  0  0
 20 52  1  0  0  0  0
 21 53  1  0  0  0  0
 21 54  1  0  0  0  0
 22 55  1  0  0  0  0
 22 56  1  0  0  0  0
 23 57  1  0  0  0  0
 26 58  1  0  0  0  0
 26 59  1  0  0  0  0
 26 60  1  0  0  0  0
 27 61  1  0  0  0  0
 27 62  1  0  0  0  0
 28 63  1  0  0  0  0
 28 64  1  0  0  0  0
M  END
> <scaffold>
tetrahydroisoquinoline-5spiro-isoquinoline

> <compound>
MAT-POS-50a80394-2

> <compound_smiles>
CCC1CN(C(=O)C12CN(Cc3c2cc(cc3)Cl)S(=O)(=O)CC4(CC4)C#N)c5cncc6c5cccc6

> <enantiomer_smiles>
CC[C@H]1CN(C(=O)[C@@]12C[N@@](Cc3c2cc(cc3)Cl)S(=O)(=O)CC4(CC4)C#N)c5cncc6c5cccc6

> <clash_score>
0.7164103979979597

> <docking_score>
3.4028234663852886e+38

> <overlap_score>
0.9822140336036682

> <MMFF_internal_energy>
135.9674881945374

> <docked_smiles>
CC[C@H]1CN(C(=O)[C@@]12C[N@@](Cc3c2cc(cc3)Cl)S(=O)(=O)CC4(CC4)C#N)c5cncc6c5cccc6

$$$$
EDJ-MED-7d88f880-2_2
  -OEChem-01042202313D

 64 69  0     1  0  0  0  0  0999 V2000
    4.8986    1.0232   21.2985 C   0  0  0  0  0  0  0  0  0  0  0  0
   12.0781    0.0316   24.1532 C   0  0  0  0  0  0  0  0  0  0  0  0
    3.8974    1.9290   21.5048 C   0  0  0  0  0  0  0  0  0  0  0  0
   12.9147   -0.6032   23.2559 C   0  0  0  0  0  0  0  0  0  0  0  0
    3.7877    2.4205   19.1658 C   0  0  0  0  0  0  0  0  0  0  0  0
   11.0005   -1.4332   22.0435 C   0  0  0  0  0  0  0  0  0  0  0  0
    5.3288    1.2339   17.6062 C   0  0  0  0  0  0  0  0  0  0  0  0
    6.8449   -0.2893   18.3747 C   0  0  0  0  0  0  0  0  0  0  0  0
    5.3995    0.7732   19.9944 C   0  0  0  0  0  0  0  0  0  0  0  0
    4.8238    1.4906   18.9051 C   0  0  0  0  0  0  0  0  0  0  0  0
   10.7056   -0.0626   23.9890 C   0  0  0  0  0  0  0  0  0  0  0  0
   10.1421   -0.7766   22.9242 C   0  0  0  0  0  0  0  0  0  0  0  0
    6.4452   -0.1472   19.6975 C   0  0  0  0  0  0  0  0  0  0  0  0
    3.3444    2.6278   20.4409 C   0  0  0  0  0  0  0  0  0  0  0  0
   12.3697   -1.3298   22.2224 C   0  0  0  0  0  0  0  0  0  0  0  0
    9.9496    0.5589   24.9527 C   0  0  0  0  0  0  0  0  0  0  0  0
    8.2504    0.0168   21.4265 C   0  0  0  0  0  0  0  0  0  0  0  0
    7.2763    2.2250   25.9925 C   0  0  0  0  0  0  0  0  0  0  0  0
    7.6338    3.0969   23.6234 C   0  0  0  0  0  0  0  0  0  0  0  0
    8.8383    3.4910   24.4268 C   0  0  0  0  0  0  0  0  0  0  0  0
    8.0155   -2.1541   22.4325 C   0  0  0  0  0  0  0  0  0  0  0  0
    6.9880   -1.9367   21.3575 C   0  0  0  0  0  0  0  0  0  0  0  0
    7.8737   -0.1194   23.8825 C   0  0  0  0  0  0  0  0  0  0  0  0
    8.6253   -0.7606   22.6923 C   0  0  3  0  0  0  0  0  0  0  0  0
    8.0937    2.2235   24.7641 C   0  0  0  0  0  0  0  0  0  0  0  0
    7.3938    1.9510   28.4610 C   0  0  0  0  0  0  0  0  0  0  0  0
    2.7547    5.0058   21.8501 C   0  0  0  0  0  0  0  0  0  0  0  0
    6.3072    0.3768   17.3417 N   0  0  0  0  0  0  0  0  0  0  0  0
    0.9699    3.0347   21.5520 N   0  0  0  0  0  0  0  0  0  0  0  0
    7.2305   -0.6898   20.7785 N   0  0  0  0  0  0  0  0  0  0  0  0
    8.6625    1.0133   24.4989 N   0  0  0  0  0  0  0  0  0  0  0  0
    7.9968    1.9904   27.1481 N   0  0  0  0  0  0  0  0  0  0  0  0
   10.3233    0.7301   26.1084 O   0  0  0  0  0  0  0  0  0  0  0  0
    8.8205    1.0412   21.0776 O   0  0  0  0  0  0  0  0  0  0  0  0
    6.0699    2.4258   25.9152 O   0  0  0  0  0  0  0  0  0  0  0  0
    1.8231    4.5131   19.5050 O   0  0  0  0  0  0  0  0  0  0  0  0
    2.0628    3.7877   20.7500 S   0  0  2  0  0  0  0  0  0  0  0  0
   13.4287   -2.1467   21.1125 Cl  0  0  0  0  0  0  0  0  0  0  0  0
    5.3127    0.4890   22.1568 H   0  0  0  0  0  0  0  0  0  0  0  0
   12.5188    0.5959   24.9712 H   0  0  0  0  0  0  0  0  0  0  0  0
    3.5274    2.1069   22.5215 H   0  0  0  0  0  0  0  0  0  0  0  0
   13.9920   -0.5225   23.3819 H   0  0  0  0  0  0  0  0  0  0  0  0
    3.3498    2.9707   18.3288 H   0  0  0  0  0  0  0  0  0  0  0  0
   10.6143   -2.0253   21.2265 H   0  0  0  0  0  0  0  0  0  0  0  0
    4.9155    1.7517   16.7470 H   0  0  0  0  0  0  0  0  0  0  0  0
    7.6461   -0.9756   18.1037 H   0  0  0  0  0  0  0  0  0  0  0  0
    6.7322    3.6851   23.7484 H   0  0  0  0  0  0  0  0  0  0  0  0
    7.7984    2.7524   22.6091 H   0  0  0  0  0  0  0  0  0  0  0  0
    9.8084    3.4093   23.9506 H   0  0  0  0  0  0  0  0  0  0  0  0
    8.7430    4.3429   25.0898 H   0  0  0  0  0  0  0  0  0  0  0  0
    7.5125   -2.5270   23.3387 H   0  0  0  0  0  0  0  0  0  0  0  0
    8.7589   -2.9107   22.1432 H   0  0  0  0  0  0  0  0  0  0  0  0
    7.0600   -2.7259   20.5720 H   0  0  0  0  0  0  0  0  0  0  0  0
    5.9527   -1.9961   21.7709 H   0  0  0  0  0  0  0  0  0  0  0  0
    6.9276    0.3247   23.5633 H   0  0  0  0  0  0  0  0  0  0  0  0
    7.6527   -0.8545   24.6567 H   0  0  0  0  0  0  0  0  0  0  0  0
    7.4034    2.9596   28.8999 H   0  0  0  0  0  0  0  0  0  0  0  0
    6.3555    1.5976   28.3771 H   0  0  0  0  0  0  0  0  0  0  0  0
    7.9635    1.2654   29.1055 H   0  0  0  0  0  0  0  0  0  0  0  0
    1.9873    5.7511   22.0651 H   0  0  0  0  0  0  0  0  0  0  0  0
    3.0676    4.5036   22.7668 H   0  0  0  0  0  0  0  0  0  0  0  0
    3.6102    5.4691   21.3565 H   0  0  0  0  0  0  0  0  0  0  0  0
    0.1608    3.6164   21.7890 H   0  0  0  0  0  0  0  0  0  0  0  0
    8.9979    1.8384   27.0711 H   0  0  0  0  0  0  0  0  0  0  0  0
  1  3  2  0  0  0  0
  1  9  1  0  0  0  0
  2  4  2  0  0  0  0
  2 11  1  0  0  0  0
  3 14  1  0  0  0  0
  4 15  1  0  0  0  0
  5 10  1  0  0  0  0
  5 14  2  0  0  0  0
  6 12  1  0  0  0  0
  6 15  2  0  0  0  0
  7 10  2  0  0  0  0
  7 28  1  0  0  0  0
  8 13  1  0  0  0  0
  8 28  2  0  0  0  0
  9 10  1  0  0  0  0
  9 13  2  0  0  0  0
 11 12  2  0  0  0  0
 11 16  1  0  0  0  0
 12 24  1  0  0  0  0
 13 30  1  0  0  0  0
 14 37  1  0  0  0  0
 15 38  1  0  0  0  0
 16 31  1  0  0  0  0
 16 33  2  0  0  0  0
 17 24  1  0  0  0  0
 17 30  1  0  0  0  0
 17 34  2  0  0  0  0
 18 25  1  0  0  0  0
 18 32  1  0  0  0  0
 18 35  2  0  0  0  0
 19 20  1  0  0  0  0
 19 25  1  0  0  0  0
 20 25  1  0  0  0  0
 21 22  1  0  0  0  0
 21 24  1  0  0  0  0
 22 30  1  0  0  0  0
 23 24  1  0  0  0  0
 23 31  1  0  0  0  0
 25 31  1  0  0  0  0
 26 32  1  0  0  0  0
 27 37  1  1  0  0  0
 29 37  2  0  0  0  0
 36 37  2  0  0  0  0
  1 39  1  0  0  0  0
  2 40  1  0  0  0  0
  3 41  1  0  0  0  0
  4 42  1  0  0  0  0
  5 43  1  0  0  0  0
  6 44  1  0  0  0  0
  7 45  1  0  0  0  0
  8 46  1  0  0  0  0
 19 47  1  0  0  0  0
 19 48  1  0  0  0  0
 20 49  1  0  0  0  0
 20 50  1  0  0  0  0
 21 51  1  0  0  0  0
 21 52  1  0  0  0  0
 22 53  1  0  0  0  0
 22 54  1  0  0  0  0
 23 55  1  0  0  0  0
 23 56  1  0  0  0  0
 26 57  1  0  0  0  0
 26 58  1  0  0  0  0
 26 59  1  0  0  0  0
 27 60  1  0  0  0  0
 27 61  1  0  0  0  0
 27 62  1  0  0  0  0
 29 63  1  0  0  0  0
 32 64  1  0  0  0  0
M  END
> <scaffold>
tetrahydroisoquinoline-5spiro-isoquinoline

> <compound>
EDJ-MED-7d88f880-2

> <compound_smiles>
CNC(=O)C1(CC1)N2CC3(CCN(C3=O)c4cncc5c4ccc(c5)S(=N)(=O)C)c6cc(ccc6C2=O)Cl

> <enantiomer_smiles>
CNC(=O)C1(CC1)N2C[C@]3(CCN(C3=O)c4cncc5c4ccc(c5)[S@](=N)(=O)C)c6cc(ccc6C2=O)Cl

> <clash_score>
0

> <docking_score>
3.4028234663852886e+38

> <overlap_score>
1.0

> <MMFF_internal_energy>
145.86109354056387

> <docked_smiles>
CNC(=O)C1(CC1)N2C[C@]3(CCN(C3=O)c4cncc5c4ccc(c5)[S@](=N)(=O)C)c6cc(ccc6C2=O)Cl

$$$$
EDJ-MED-7d88f880-2_1
  -OEChem-01042202313D

 64 69  0     1  0  0  0  0  0999 V2000
    4.8986    1.0232   21.2985 C   0  0  0  0  0  0  0  0  0  0  0  0
   12.0781    0.0316   24.1532 C   0  0  0  0  0  0  0  0  0  0  0  0
    3.8974    1.9290   21.5048 C   0  0  0  0  0  0  0  0  0  0  0  0
   12.9147   -0.6032   23.2559 C   0  0  0  0  0  0  0  0  0  0  0  0
    3.7877    2.4205   19.1658 C   0  0  0  0  0  0  0  0  0  0  0  0
   11.0005   -1.4332   22.0435 C   0  0  0  0  0  0  0  0  0  0  0  0
    5.3288    1.2339   17.6062 C   0  0  0  0  0  0  0  0  0  0  0  0
    6.8449   -0.2893   18.3747 C   0  0  0  0  0  0  0  0  0  0  0  0
    5.3995    0.7732   19.9944 C   0  0  0  0  0  0  0  0  0  0  0  0
    4.8238    1.4906   18.9051 C   0  0  0  0  0  0  0  0  0  0  0  0
   10.7056   -0.0626   23.9890 C   0  0  0  0  0  0  0  0  0  0  0  0
   10.1421   -0.7766   22.9242 C   0  0  0  0  0  0  0  0  0  0  0  0
    6.4452   -0.1472   19.6975 C   0  0  0  0  0  0  0  0  0  0  0  0
    3.3444    2.6278   20.4409 C   0  0  0  0  0  0  0  0  0  0  0  0
   12.3697   -1.3298   22.2224 C   0  0  0  0  0  0  0  0  0  0  0  0
    9.9496    0.5589   24.9527 C   0  0  0  0  0  0  0  0  0  0  0  0
    8.2504    0.0168   21.4265 C   0  0  0  0  0  0  0  0  0  0  0  0
    7.2720    2.2444   25.9895 C   0  0  0  0  0  0  0  0  0  0  0  0
    7.6382    3.0795   23.6085 C   0  0  0  0  0  0  0  0  0  0  0  0
    8.8401    3.4853   24.4099 C   0  0  0  0  0  0  0  0  0  0  0  0
    8.0155   -2.1541   22.4325 C   0  0  0  0  0  0  0  0  0  0  0  0
    6.9880   -1.9367   21.3575 C   0  0  0  0  0  0  0  0  0  0  0  0
    7.8737   -0.1194   23.8825 C   0  0  0  0  0  0  0  0  0  0  0  0
    8.6253   -0.7606   22.6923 C   0  0  3  0  0  0  0  0  0  0  0  0
    8.0937    2.2235   24.7641 C   0  0  0  0  0  0  0  0  0  0  0  0
    7.3808    2.0084   28.4623 C   0  0  0  0  0  0  0  0  0  0  0  0
    0.7332    2.8666   21.4958 C   0  0  0  0  0  0  0  0  0  0  0  0
    6.3072    0.3768   17.3417 N   0  0  0  0  0  0  0  0  0  0  0  0
    2.6040    4.7483   21.8405 N   0  0  0  0  0  0  0  0  0  0  0  0
    7.2305   -0.6898   20.7785 N   0  0  0  0  0  0  0  0  0  0  0  0
    8.6625    1.0133   24.4989 N   0  0  0  0  0  0  0  0  0  0  0  0
    7.9884    2.0273   27.1510 N   0  0  0  0  0  0  0  0  0  0  0  0
   10.3233    0.7301   26.1084 O   0  0  0  0  0  0  0  0  0  0  0  0
    8.8205    1.0412   21.0776 O   0  0  0  0  0  0  0  0  0  0  0  0
    6.0660    2.4445   25.9049 O   0  0  0  0  0  0  0  0  0  0  0  0
    1.5319    4.2200   19.4597 O   0  0  0  0  0  0  0  0  0  0  0  0
    2.0628    3.7877   20.7500 S   0  0  1  0  0  0  0  0  0  0  0  0
   13.4287   -2.1467   21.1125 Cl  0  0  0  0  0  0  0  0  0  0  0  0
    5.3127    0.4890   22.1568 H   0  0  0  0  0  0  0  0  0  0  0  0
   12.5188    0.5959   24.9712 H   0  0  0  0  0  0  0  0  0  0  0  0
    3.5274    2.1069   22.5215 H   0  0  0  0  0  0  0  0  0  0  0  0
   13.9920   -0.5225   23.3819 H   0  0  0  0  0  0  0  0  0  0  0  0
    3.3498    2.9707   18.3288 H   0  0  0  0  0  0  0  0  0  0  0  0
   10.6143   -2.0253   21.2265 H   0  0  0  0  0  0  0  0  0  0  0  0
    4.9155    1.7517   16.7470 H   0  0  0  0  0  0  0  0  0  0  0  0
    7.6461   -0.9756   18.1037 H   0  0  0  0  0  0  0  0  0  0  0  0
    6.7365    3.6699   23.7213 H   0  0  0  0  0  0  0  0  0  0  0  0
    7.8062    2.7193   22.6002 H   0  0  0  0  0  0  0  0  0  0  0  0
    9.8118    3.3958   23.9384 H   0  0  0  0  0  0  0  0  0  0  0  0
    8.7430    4.3474   25.0594 H   0  0  0  0  0  0  0  0  0  0  0  0
    7.5125   -2.5270   23.3387 H   0  0  0  0  0  0  0  0  0  0  0  0
    8.7589   -2.9107   22.1432 H   0  0  0  0  0  0  0  0  0  0  0  0
    7.0600   -2.7259   20.5720 H   0  0  0  0  0  0  0  0  0  0  0  0
    5.9527   -1.9961   21.7709 H   0  0  0  0  0  0  0  0  0  0  0  0
    6.9276    0.3247   23.5633 H   0  0  0  0  0  0  0  0  0  0  0  0
    7.6527   -0.8545   24.6567 H   0  0  0  0  0  0  0  0  0  0  0  0
    7.3894    3.0236   28.8856 H   0  0  0  0  0  0  0  0  0  0  0  0
    6.3426    1.6542   28.3802 H   0  0  0  0  0  0  0  0  0  0  0  0
    7.9479    1.3325   29.1193 H   0  0  0  0  0  0  0  0  0  0  0  0
   -0.0861    3.5553   21.7083 H   0  0  0  0  0  0  0  0  0  0  0  0
    0.4123    2.0955   20.7938 H   0  0  0  0  0  0  0  0  0  0  0  0
    1.1021    2.4150   22.4179 H   0  0  0  0  0  0  0  0  0  0  0  0
    1.9396    5.4803   22.1089 H   0  0  0  0  0  0  0  0  0  0  0  0
    8.9897    1.8736   27.0799 H   0  0  0  0  0  0  0  0  0  0  0  0
  1  3  2  0  0  0  0
  1  9  1  0  0  0  0
  2  4  2  0  0  0  0
  2 11  1  0  0  0  0
  3 14  1  0  0  0  0
  4 15  1  0  0  0  0
  5 10  1  0  0  0  0
  5 14  2  0  0  0  0
  6 12  1  0  0  0  0
  6 15  2  0  0  0  0
  7 10  2  0  0  0  0
  7 28  1  0  0  0  0
  8 13  1  0  0  0  0
  8 28  2  0  0  0  0
  9 10  1  0  0  0  0
  9 13  2  0  0  0  0
 11 12  2  0  0  0  0
 11 16  1  0  0  0  0
 12 24  1  0  0  0  0
 13 30  1  0  0  0  0
 14 37  1  0  0  0  0
 15 38  1  0  0  0  0
 16 31  1  0  0  0  0
 16 33  2  0  0  0  0
 17 24  1  0  0  0  0
 17 30  1  0  0  0  0
 17 34  2  0  0  0  0
 18 25  1  0  0  0  0
 18 32  1  0  0  0  0
 18 35  2  0  0  0  0
 19 20  1  0  0  0  0
 19 25  1  0  0  0  0
 20 25  1  0  0  0  0
 21 22  1  0  0  0  0
 21 24  1  0  0  0  0
 22 30  1  0  0  0  0
 23 24  1  0  0  0  0
 23 31  1  0  0  0  0
 25 31  1  0  0  0  0
 26 32  1  0  0  0  0
 27 37  1  6  0  0  0
 29 37  2  0  0  0  0
 36 37  2  0  0  0  0
  1 39  1  0  0  0  0
  2 40  1  0  0  0  0
  3 41  1  0  0  0  0
  4 42  1  0  0  0  0
  5 43  1  0  0  0  0
  6 44  1  0  0  0  0
  7 45  1  0  0  0  0
  8 46  1  0  0  0  0
 19 47  1  0  0  0  0
 19 48  1  0  0  0  0
 20 49  1  0  0  0  0
 20 50  1  0  0  0  0
 21 51  1  0  0  0  0
 21 52  1  0  0  0  0
 22 53  1  0  0  0  0
 22 54  1  0  0  0  0
 23 55  1  0  0  0  0
 23 56  1  0  0  0  0
 26 57  1  0  0  0  0
 26 58  1  0  0  0  0
 26 59  1  0  0  0  0
 27 60  1  0  0  0  0
 27 61  1  0  0  0  0
 27 62  1  0  0  0  0
 29 63  1  0  0  0  0
 32 64  1  0  0  0  0
M  END
> <scaffold>
tetrahydroisoquinoline-5spiro-isoquinoline

> <compound>
EDJ-MED-7d88f880-2

> <compound_smiles>
CNC(=O)C1(CC1)N2CC3(CCN(C3=O)c4cncc5c4ccc(c5)S(=N)(=O)C)c6cc(ccc6C2=O)Cl

> <enantiomer_smiles>
CNC(=O)C1(CC1)N2C[C@]3(CCN(C3=O)c4cncc5c4ccc(c5)[S@@](=N)(=O)C)c6cc(ccc6C2=O)Cl

> <clash_score>
1.3048286427575357

> <docking_score>
3.4028234663852886e+38

> <overlap_score>
1.0

> <MMFF_internal_energy>
147.57576264110898

> <docked_smiles>
CNC(=O)C1(CC1)N2C[C@]3(CCN(C3=O)c4cncc5c4ccc(c5)[S@@](=N)(=O)C)c6cc(ccc6C2=O)Cl

$$$$
EDJ-MED-b6c6ee2b-3_1
  -OEChem-01042202313D

 62 67  0     1  0  0  0  0  0999 V2000
    6.5923    2.6670   28.4298 C   0  0  0  0  0  0  0  0  0  0  0  0
    3.7877    2.4205   19.1658 C   0  0  0  0  0  0  0  0  0  0  0  0
   12.0781    0.0316   24.1532 C   0  0  0  0  0  0  0  0  0  0  0  0
    3.3444    2.6278   20.4409 C   0  0  0  0  0  0  0  0  0  0  0  0
   12.9147   -0.6032   23.2559 C   0  0  0  0  0  0  0  0  0  0  0  0
    4.8986    1.0232   21.2985 C   0  0  0  0  0  0  0  0  0  0  0  0
   11.0005   -1.4332   22.0435 C   0  0  0  0  0  0  0  0  0  0  0  0
    5.3288    1.2339   17.6062 C   0  0  0  0  0  0  0  0  0  0  0  0
    6.8449   -0.2893   18.3747 C   0  0  0  0  0  0  0  0  0  0  0  0
    4.8238    1.4906   18.9051 C   0  0  0  0  0  0  0  0  0  0  0  0
    5.3995    0.7732   19.9944 C   0  0  0  0  0  0  0  0  0  0  0  0
   10.7056   -0.0626   23.9890 C   0  0  0  0  0  0  0  0  0  0  0  0
   10.1421   -0.7766   22.9242 C   0  0  0  0  0  0  0  0  0  0  0  0
    6.4452   -0.1472   19.6975 C   0  0  0  0  0  0  0  0  0  0  0  0
    3.8974    1.9290   21.5048 C   0  0  0  0  0  0  0  0  0  0  0  0
   12.3697   -1.3298   22.2224 C   0  0  0  0  0  0  0  0  0  0  0  0
    8.2504    0.0168   21.4265 C   0  0  0  0  0  0  0  0  0  0  0  0
    9.9496    0.5589   24.9527 C   0  0  0  0  0  0  0  0  0  0  0  0
    5.7974    0.2895   28.6968 C   0  0  0  0  0  0  0  0  0  0  0  0
    5.0772    0.8711   27.5163 C   0  0  0  0  0  0  0  0  0  0  0  0
    8.0155   -2.1541   22.4325 C   0  0  0  0  0  0  0  0  0  0  0  0
    6.9880   -1.9367   21.3575 C   0  0  0  0  0  0  0  0  0  0  0  0
    7.8737   -0.1194   23.8825 C   0  0  0  0  0  0  0  0  0  0  0  0
    6.4702    1.3516   27.8565 C   0  0  0  0  0  0  0  0  0  0  0  0
    8.6253   -0.7606   22.6923 C   0  0  3  0  0  0  0  0  0  0  0  0
    2.3771    3.1176   22.9053 C   0  0  0  0  0  0  0  0  0  0  0  0
    7.6088    0.9304   26.9546 C   0  0  0  0  0  0  0  0  0  0  0  0
    6.6907    3.7268   28.8917 N   0  0  0  0  0  0  0  0  0  0  0  0
    6.3072    0.3768   17.3417 N   0  0  0  0  0  0  0  0  0  0  0  0
    7.2305   -0.6898   20.7785 N   0  0  0  0  0  0  0  0  0  0  0  0
    8.6625    1.0133   24.4989 N   0  0  3  0  0  0  0  0  0  0  0  0
    8.8314    1.0394   21.0790 O   0  0  0  0  0  0  0  0  0  0  0  0
    6.4559    2.2241   24.9990 O   0  0  0  0  0  0  0  0  0  0  0  0
    8.6119    3.1278   25.9583 O   0  0  0  0  0  0  0  0  0  0  0  0
    3.4243    2.1582   22.7713 O   0  0  0  0  0  0  0  0  0  0  0  0
    7.7725    2.0180   25.5623 S   0  0  0  0  0  0  0  0  0  0  0  0
   13.4285   -2.1410   21.1076 Cl  0  0  0  0  0  0  0  0  0  0  0  0
    3.3418    2.9747   18.3367 H   0  0  0  0  0  0  0  0  0  0  0  0
   12.5038    0.5986   24.9731 H   0  0  0  0  0  0  0  0  0  0  0  0
    2.5418    3.3504   20.6305 H   0  0  0  0  0  0  0  0  0  0  0  0
   13.9925   -0.5165   23.3773 H   0  0  0  0  0  0  0  0  0  0  0  0
    5.3175    0.4856   22.1531 H   0  0  0  0  0  0  0  0  0  0  0  0
   10.6052   -2.0169   21.2237 H   0  0  0  0  0  0  0  0  0  0  0  0
    4.9141    1.7513   16.7476 H   0  0  0  0  0  0  0  0  0  0  0  0
    7.6459   -0.9759   18.1036 H   0  0  0  0  0  0  0  0  0  0  0  0
    9.7866   -0.1187   25.8304 H   0  0  0  0  0  0  0  0  0  0  0  0
   10.4816    1.4567   25.3600 H   0  0  0  0  0  0  0  0  0  0  0  0
    5.4358    0.5518   29.6847 H   0  0  0  0  0  0  0  0  0  0  0  0
    6.1481   -0.7331   28.6181 H   0  0  0  0  0  0  0  0  0  0  0  0
    4.9448    0.2375   26.6469 H   0  0  0  0  0  0  0  0  0  0  0  0
    4.2331    1.5218   27.7145 H   0  0  0  0  0  0  0  0  0  0  0  0
    7.5167   -2.5459   23.3332 H   0  0  0  0  0  0  0  0  0  0  0  0
    8.7666   -2.9029   22.1426 H   0  0  0  0  0  0  0  0  0  0  0  0
    7.0601   -2.7250   20.5715 H   0  0  0  0  0  0  0  0  0  0  0  0
    5.9530   -1.9963   21.7709 H   0  0  0  0  0  0  0  0  0  0  0  0
    6.8882    0.2643   23.5640 H   0  0  0  0  0  0  0  0  0  0  0  0
    7.6667   -0.8657   24.6729 H   0  0  0  0  0  0  0  0  0  0  0  0
    2.0897    3.2000   23.9563 H   0  0  0  0  0  0  0  0  0  0  0  0
    1.5182    2.8072   22.3049 H   0  0  0  0  0  0  0  0  0  0  0  0
    2.7356    4.0870   22.5509 H   0  0  0  0  0  0  0  0  0  0  0  0
    7.4436   -0.0759   26.5599 H   0  0  0  0  0  0  0  0  0  0  0  0
    8.5609    0.9485   27.4918 H   0  0  0  0  0  0  0  0  0  0  0  0
  1 24  1  0  0  0  0
  1 28  3  0  0  0  0
  2  4  2  0  0  0  0
  2 10  1  0  0  0  0
  3  5  2  0  0  0  0
  3 12  1  0  0  0  0
  4 15  1  0  0  0  0
  5 16  1  0  0  0  0
  6 11  1  0  0  0  0
  6 15  2  0  0  0  0
  7 13  1  0  0  0  0
  7 16  2  0  0  0  0
  8 10  2  0  0  0  0
  8 29  1  0  0  0  0
  9 14  1  0  0  0  0
  9 29  2  0  0  0  0
 10 11  1  0  0  0  0
 11 14  2  0  0  0  0
 12 13  2  0  0  0  0
 12 18  1  0  0  0  0
 13 25  1  0  0  0  0
 14 30  1  0  0  0  0
 15 35  1  0  0  0  0
 16 37  1  0  0  0  0
 17 25  1  0  0  0  0
 17 30  1  0  0  0  0
 17 32  2  0  0  0  0
 18 31  1  0  0  0  0
 19 20  1  0  0  0  0
 19 24  1  0  0  0  0
 20 24  1  0  0  0  0
 21 22  1  0  0  0  0
 21 25  1  0  0  0  0
 22 30  1  0  0  0  0
 23 25  1  0  0  0  0
 23 31  1  0  0  0  0
 24 27  1  0  0  0  0
 26 35  1  0  0  0  0
 27 36  1  0  0  0  0
 31 36  1  0  0  0  0
 33 36  2  0  0  0  0
 34 36  2  0  0  0  0
  2 38  1  0  0  0  0
  3 39  1  0  0  0  0
  4 40  1  0  0  0  0
  5 41  1  0  0  0  0
  6 42  1  0  0  0  0
  7 43  1  0  0  0  0
  8 44  1  0  0  0  0
  9 45  1  0  0  0  0
 18 46  1  0  0  0  0
 18 47  1  0  0  0  0
 19 48  1  0  0  0  0
 19 49  1  0  0  0  0
 20 50  1  0  0  0  0
 20 51  1  0  0  0  0
 21 52  1  0  0  0  0
 21 53  1  0  0  0  0
 22 54  1  0  0  0  0
 22 55  1  0  0  0  0
 23 56  1  0  0  0  0
 23 57  1  0  0  0  0
 26 58  1  0  0  0  0
 26 59  1  0  0  0  0
 26 60  1  0  0  0  0
 27 61  1  0  0  0  0
 27 62  1  0  0  0  0
M  END
> <scaffold>
tetrahydroisoquinoline-5spiro-isoquinoline

> <compound>
EDJ-MED-b6c6ee2b-3

> <compound_smiles>
COc1ccc2cncc(c2c1)N3CCC4(C3=O)CN(Cc5c4cc(cc5)Cl)S(=O)(=O)CC6(CC6)C#N

> <enantiomer_smiles>
COc1ccc2cncc(c2c1)N3CC[C@]4(C3=O)C[N@](Cc5c4cc(cc5)Cl)S(=O)(=O)CC6(CC6)C#N

> <clash_score>
0

> <docking_score>
3.4028234663852886e+38

> <overlap_score>
0.9795013666152954

> <MMFF_internal_energy>
121.60601484549662

> <docked_smiles>
COc1ccc2cncc(c2c1)N3CC[C@]4(C3=O)C[N@](Cc5c4cc(cc5)Cl)S(=O)(=O)CC6(CC6)C#N

$$$$
PET-UNK-94036022-13_1
  -OEChem-01042202313D

 58 63  0     1  0  0  0  0  0999 V2000
    6.6072    2.5903   28.4546 C   0  0  0  0  0  0  0  0  0  0  0  0
    3.3444    2.6278   20.4409 C   0  0  0  0  0  0  0  0  0  0  0  0
    3.8974    1.9290   21.5048 C   0  0  0  0  0  0  0  0  0  0  0  0
    3.7877    2.4205   19.1658 C   0  0  0  0  0  0  0  0  0  0  0  0
    4.8986    1.0232   21.2985 C   0  0  0  0  0  0  0  0  0  0  0  0
   12.0781    0.0316   24.1532 C   0  0  0  0  0  0  0  0  0  0  0  0
   12.9147   -0.6032   23.2559 C   0  0  0  0  0  0  0  0  0  0  0  0
   11.0005   -1.4332   22.0435 C   0  0  0  0  0  0  0  0  0  0  0  0
    5.3288    1.2339   17.6062 C   0  0  0  0  0  0  0  0  0  0  0  0
    6.8449   -0.2893   18.3747 C   0  0  0  0  0  0  0  0  0  0  0  0
    4.8238    1.4906   18.9051 C   0  0  0  0  0  0  0  0  0  0  0  0
    5.3995    0.7732   19.9944 C   0  0  0  0  0  0  0  0  0  0  0  0
   10.7056   -0.0626   23.9890 C   0  0  0  0  0  0  0  0  0  0  0  0
   10.1421   -0.7766   22.9242 C   0  0  0  0  0  0  0  0  0  0  0  0
    6.4452   -0.1472   19.6975 C   0  0  0  0  0  0  0  0  0  0  0  0
   12.3697   -1.3298   22.2224 C   0  0  0  0  0  0  0  0  0  0  0  0
    6.9880   -1.9367   21.3575 C   0  0  0  0  0  0  0  0  0  0  0  0
    8.0155   -2.1541   22.4325 C   0  0  0  0  0  0  0  0  0  0  0  0
    8.2504    0.0168   21.4265 C   0  0  0  0  0  0  0  0  0  0  0  0
    6.0125   -2.8151   21.1717 C   0  0  0  0  0  0  0  0  0  0  0  0
    9.9496    0.5589   24.9527 C   0  0  0  0  0  0  0  0  0  0  0  0
    5.8361    0.2002   28.6754 C   0  0  0  0  0  0  0  0  0  0  0  0
    5.1016    0.8008   27.5134 C   0  0  0  0  0  0  0  0  0  0  0  0
    7.8737   -0.1194   23.8825 C   0  0  0  0  0  0  0  0  0  0  0  0
    6.4927    1.2867   27.8536 C   0  0  0  0  0  0  0  0  0  0  0  0
    8.6253   -0.7606   22.6923 C   0  0  3  0  0  0  0  0  0  0  0  0
    7.6281    0.8959   26.9341 C   0  0  0  0  0  0  0  0  0  0  0  0
    6.6995    3.6406   28.9388 N   0  0  0  0  0  0  0  0  0  0  0  0
    6.3072    0.3768   17.3417 N   0  0  0  0  0  0  0  0  0  0  0  0
    7.2305   -0.6898   20.7785 N   0  0  0  0  0  0  0  0  0  0  0  0
    8.6625    1.0133   24.4989 N   0  0  3  0  0  0  0  0  0  0  0  0
    8.2888   -3.1785   22.9754 O   0  0  0  0  0  0  0  0  0  0  0  0
    8.8178    1.0538   21.0822 O   0  0  0  0  0  0  0  0  0  0  0  0
    6.4459    2.2377   25.0291 O   0  0  0  0  0  0  0  0  0  0  0  0
    8.6213    3.1126   25.9712 O   0  0  0  0  0  0  0  0  0  0  0  0
    7.7711    2.0151   25.5648 S   0  0  0  0  0  0  0  0  0  0  0  0
   13.4282   -2.1409   21.1073 Cl  0  0  0  0  0  0  0  0  0  0  0  0
    2.5443    3.3508   20.6368 H   0  0  0  0  0  0  0  0  0  0  0  0
    3.5189    2.1137   22.5166 H   0  0  0  0  0  0  0  0  0  0  0  0
    3.3421    2.9744   18.3363 H   0  0  0  0  0  0  0  0  0  0  0  0
    5.3131    0.4893   22.1569 H   0  0  0  0  0  0  0  0  0  0  0  0
   12.5040    0.6001   24.9723 H   0  0  0  0  0  0  0  0  0  0  0  0
   13.9924   -0.5152   23.3766 H   0  0  0  0  0  0  0  0  0  0  0  0
   10.6056   -2.0189   21.2244 H   0  0  0  0  0  0  0  0  0  0  0  0
    4.9151    1.7511   16.7471 H   0  0  0  0  0  0  0  0  0  0  0  0
    7.6455   -0.9765   18.1038 H   0  0  0  0  0  0  0  0  0  0  0  0
    5.2708   -2.6585   20.3967 H   0  0  0  0  0  0  0  0  0  0  0  0
    5.9372   -3.7038   21.7879 H   0  0  0  0  0  0  0  0  0  0  0  0
    9.7892   -0.1161   25.8347 H   0  0  0  0  0  0  0  0  0  0  0  0
   10.4822    1.4582   25.3596 H   0  0  0  0  0  0  0  0  0  0  0  0
    5.4797    0.4376   29.6715 H   0  0  0  0  0  0  0  0  0  0  0  0
    6.1956   -0.8170   28.5716 H   0  0  0  0  0  0  0  0  0  0  0  0
    4.9682    0.1851   26.6313 H   0  0  0  0  0  0  0  0  0  0  0  0
    4.2531    1.4391   27.7322 H   0  0  0  0  0  0  0  0  0  0  0  0
    6.8964    0.2717   23.5507 H   0  0  0  0  0  0  0  0  0  0  0  0
    7.6634   -0.8619   24.6726 H   0  0  0  0  0  0  0  0  0  0  0  0
    7.4691   -0.1031   26.5186 H   0  0  0  0  0  0  0  0  0  0  0  0
    8.5841    0.9111   27.4643 H   0  0  0  0  0  0  0  0  0  0  0  0
  1 25  1  0  0  0  0
  1 28  3  0  0  0  0
  2  3  2  0  0  0  0
  2  4  1  0  0  0  0
  3  5  1  0  0  0  0
  4 11  2  0  0  0  0
  5 12  2  0  0  0  0
  6  7  2  0  0  0  0
  6 13  1  0  0  0  0
  7 16  1  0  0  0  0
  8 14  1  0  0  0  0
  8 16  2  0  0  0  0
  9 11  1  0  0  0  0
  9 29  2  0  0  0  0
 10 15  2  0  0  0  0
 10 29  1  0  0  0  0
 11 12  1  0  0  0  0
 12 15  1  0  0  0  0
 13 14  2  0  0  0  0
 13 21  1  0  0  0  0
 14 26  1  0  0  0  0
 15 30  1  0  0  0  0
 16 37  1  0  0  0  0
 17 18  1  0  0  0  0
 17 20  2  0  0  0  0
 17 30  1  0  0  0  0
 18 26  1  0  0  0  0
 18 32  2  0  0  0  0
 19 26  1  0  0  0  0
 19 30  1  0  0  0  0
 19 33  2  0  0  0  0
 21 31  1  0  0  0  0
 22 23  1  0  0  0  0
 22 25  1  0  0  0  0
 23 25  1  0  0  0  0
 24 26  1  0  0  0  0
 24 31  1  0  0  0  0
 25 27  1  0  0  0  0
 27 36  1  0  0  0  0
 31 36  1  0  0  0  0
 34 36  2  0  0  0  0
 35 36  2  0  0  0  0
  2 38  1  0  0  0  0
  3 39  1  0  0  0  0
  4 40  1  0  0  0  0
  5 41  1  0  0  0  0
  6 42  1  0  0  0  0
  7 43  1  0  0  0  0
  8 44  1  0  0  0  0
  9 45  1  0  0  0  0
 10 46  1  0  0  0  0
 20 47  1  0  0  0  0
 20 48  1  0  0  0  0
 21 49  1  0  0  0  0
 21 50  1  0  0  0  0
 22 51  1  0  0  0  0
 22 52  1  0  0  0  0
 23 53  1  0  0  0  0
 23 54  1  0  0  0  0
 24 55  1  0  0  0  0
 24 56  1  0  0  0  0
 27 57  1  0  0  0  0
 27 58  1  0  0  0  0
M  END
> <scaffold>
tetrahydroisoquinoline-5spiro-isoquinoline

> <compound>
PET-UNK-94036022-13

> <compound_smiles>
C=C1C(=O)C2(CN(Cc3c2cc(cc3)Cl)S(=O)(=O)CC4(CC4)C#N)C(=O)N1c5cncc6c5cccc6

> <enantiomer_smiles>
C=C1C(=O)[C@]2(C[N@](Cc3c2cc(cc3)Cl)S(=O)(=O)CC4(CC4)C#N)C(=O)N1c5cncc6c5cccc6

> <clash_score>
0

> <docking_score>
3.4028234663852886e+38

> <overlap_score>
1.0

> <MMFF_internal_energy>
130.34740169075303

> <docked_smiles>
C=C1C(=O)[C@]2(C[N@](Cc3c2cc(cc3)Cl)S(=O)(=O)CC4(CC4)C#N)C(=O)N1c5cncc6c5cccc6

$$$$
PET-UNK-94036022-6_1
  -OEChem-01042202313D

 58 63  0     1  0  0  0  0  0999 V2000
    8.6801    5.6481   23.5805 C   0  0  0  0  0  0  0  0  0  0  0  0
    3.3444    2.6278   20.4409 C   0  0  0  0  0  0  0  0  0  0  0  0
    3.8974    1.9290   21.5048 C   0  0  0  0  0  0  0  0  0  0  0  0
    3.7877    2.4205   19.1658 C   0  0  0  0  0  0  0  0  0  0  0  0
    4.8986    1.0232   21.2985 C   0  0  0  0  0  0  0  0  0  0  0  0
   12.0781    0.0316   24.1532 C   0  0  0  0  0  0  0  0  0  0  0  0
   12.9147   -0.6032   23.2559 C   0  0  0  0  0  0  0  0  0  0  0  0
   11.0005   -1.4332   22.0435 C   0  0  0  0  0  0  0  0  0  0  0  0
    5.3288    1.2339   17.6062 C   0  0  0  0  0  0  0  0  0  0  0  0
    6.8449   -0.2893   18.3747 C   0  0  0  0  0  0  0  0  0  0  0  0
    4.8238    1.4906   18.9051 C   0  0  0  0  0  0  0  0  0  0  0  0
    5.3995    0.7732   19.9944 C   0  0  0  0  0  0  0  0  0  0  0  0
   10.7056   -0.0626   23.9890 C   0  0  0  0  0  0  0  0  0  0  0  0
   10.1421   -0.7766   22.9242 C   0  0  0  0  0  0  0  0  0  0  0  0
    6.4452   -0.1472   19.6975 C   0  0  0  0  0  0  0  0  0  0  0  0
   12.3697   -1.3298   22.2224 C   0  0  0  0  0  0  0  0  0  0  0  0
    6.9880   -1.9367   21.3575 C   0  0  0  0  0  0  0  0  0  0  0  0
    8.0155   -2.1541   22.4325 C   0  0  0  0  0  0  0  0  0  0  0  0
    8.2504    0.0168   21.4265 C   0  0  0  0  0  0  0  0  0  0  0  0
    6.0123   -2.8149   21.1721 C   0  0  0  0  0  0  0  0  0  0  0  0
    9.9496    0.5589   24.9527 C   0  0  0  0  0  0  0  0  0  0  0  0
    7.0581    5.7487   25.5080 C   0  0  0  0  0  0  0  0  0  0  0  0
    6.3574    5.0672   24.3700 C   0  0  0  0  0  0  0  0  0  0  0  0
    7.8737   -0.1194   23.8825 C   0  0  0  0  0  0  0  0  0  0  0  0
    7.8562    4.9300   24.5182 C   0  0  0  0  0  0  0  0  0  0  0  0
    8.6253   -0.7606   22.6923 C   0  0  1  0  0  0  0  0  0  0  0  0
    8.4073    3.5983   24.9766 C   0  0  0  0  0  0  0  0  0  0  0  0
    9.3439    6.2268   22.8251 N   0  0  0  0  0  0  0  0  0  0  0  0
    6.3072    0.3768   17.3417 N   0  0  0  0  0  0  0  0  0  0  0  0
    7.2305   -0.6898   20.7785 N   0  0  0  0  0  0  0  0  0  0  0  0
    8.6625    1.0133   24.4989 N   0  0  3  0  0  0  0  0  0  0  0  0
    8.2892   -3.1795   22.9734 O   0  0  0  0  0  0  0  0  0  0  0  0
    8.8197    1.0531   21.0835 O   0  0  0  0  0  0  0  0  0  0  0  0
    7.4196    2.5121   22.8152 O   0  0  0  0  0  0  0  0  0  0  0  0
    9.9274    2.7285   23.0374 O   0  0  0  0  0  0  0  0  0  0  0  0
    8.6245    2.4808   23.6155 S   0  0  0  0  0  0  0  0  0  0  0  0
   13.4280   -2.1441   21.1096 Cl  0  0  0  0  0  0  0  0  0  0  0  0
    2.5443    3.3508   20.6368 H   0  0  0  0  0  0  0  0  0  0  0  0
    3.5189    2.1137   22.5166 H   0  0  0  0  0  0  0  0  0  0  0  0
    3.3421    2.9744   18.3363 H   0  0  0  0  0  0  0  0  0  0  0  0
    5.3131    0.4893   22.1569 H   0  0  0  0  0  0  0  0  0  0  0  0
   12.5040    0.5908   24.9787 H   0  0  0  0  0  0  0  0  0  0  0  0
   13.9925   -0.5223   23.3813 H   0  0  0  0  0  0  0  0  0  0  0  0
   10.6059   -2.0216   21.2261 H   0  0  0  0  0  0  0  0  0  0  0  0
    4.9151    1.7511   16.7471 H   0  0  0  0  0  0  0  0  0  0  0  0
    7.6455   -0.9765   18.1038 H   0  0  0  0  0  0  0  0  0  0  0  0
    5.2707   -2.6583   20.3972 H   0  0  0  0  0  0  0  0  0  0  0  0
    5.9369   -3.7033   21.7886 H   0  0  0  0  0  0  0  0  0  0  0  0
    9.7604   -0.1295   25.8173 H   0  0  0  0  0  0  0  0  0  0  0  0
   10.4958    1.4381   25.3852 H   0  0  0  0  0  0  0  0  0  0  0  0
    7.1325    6.8299   25.4766 H   0  0  0  0  0  0  0  0  0  0  0  0
    6.9034    5.3509   26.5043 H   0  0  0  0  0  0  0  0  0  0  0  0
    5.7324    4.2132   24.6043 H   0  0  0  0  0  0  0  0  0  0  0  0
    5.9622    5.6927   23.5776 H   0  0  0  0  0  0  0  0  0  0  0  0
    6.8903    0.2751   23.5708 H   0  0  0  0  0  0  0  0  0  0  0  0
    7.6754   -0.8761   24.6610 H   0  0  0  0  0  0  0  0  0  0  0  0
    7.7274    3.1160   25.6843 H   0  0  0  0  0  0  0  0  0  0  0  0
    9.3844    3.7216   25.4516 H   0  0  0  0  0  0  0  0  0  0  0  0
  1 25  1  0  0  0  0
  1 28  3  0  0  0  0
  2  3  2  0  0  0  0
  2  4  1  0  0  0  0
  3  5  1  0  0  0  0
  4 11  2  0  0  0  0
  5 12  2  0  0  0  0
  6  7  2  0  0  0  0
  6 13  1  0  0  0  0
  7 16  1  0  0  0  0
  8 14  1  0  0  0  0
  8 16  2  0  0  0  0
  9 11  1  0  0  0  0
  9 29  2  0  0  0  0
 10 15  2  0  0  0  0
 10 29  1  0  0  0  0
 11 12  1  0  0  0  0
 12 15  1  0  0  0  0
 13 14  2  0  0  0  0
 13 21  1  0  0  0  0
 14 26  1  1  0  0  0
 15 30  1  0  0  0  0
 16 37  1  0  0  0  0
 17 18  1  0  0  0  0
 17 20  2  0  0  0  0
 17 30  1  0  0  0  0
 18 26  1  6  0  0  0
 18 32  2  0  0  0  0
 19 26  1  1  0  0  0
 19 30  1  0  0  0  0
 19 33  2  0  0  0  0
 21 31  1  0  0  0  0
 22 23  1  0  0  0  0
 22 25  1  0  0  0  0
 23 25  1  0  0  0  0
 24 26  1  6  0  0  0
 24 31  1  0  0  0  0
 25 27  1  0  0  0  0
 27 36  1  0  0  0  0
 31 36  1  0  0  0  0
 34 36  2  0  0  0  0
 35 36  2  0  0  0  0
  2 38  1  0  0  0  0
  3 39  1  0  0  0  0
  4 40  1  0  0  0  0
  5 41  1  0  0  0  0
  6 42  1  0  0  0  0
  7 43  1  0  0  0  0
  8 44  1  0  0  0  0
  9 45  1  0  0  0  0
 10 46  1  0  0  0  0
 20 47  1  0  0  0  0
 20 48  1  0  0  0  0
 21 49  1  0  0  0  0
 21 50  1  0  0  0  0
 22 51  1  0  0  0  0
 22 52  1  0  0  0  0
 23 53  1  0  0  0  0
 23 54  1  0  0  0  0
 24 55  1  0  0  0  0
 24 56  1  0  0  0  0
 27 57  1  0  0  0  0
 27 58  1  0  0  0  0
M  END
> <scaffold>
tetrahydroisoquinoline-5spiro-isoquinoline

> <compound>
PET-UNK-94036022-6

> <compound_smiles>
C=C1C(=O)[C@]2(CN(Cc3c2cc(cc3)Cl)S(=O)(=O)CC4(CC4)C#N)C(=O)N1c5cncc6c5cccc6

> <enantiomer_smiles>
C=C1C(=O)[C@]2(C[N@](Cc3c2cc(cc3)Cl)S(=O)(=O)CC4(CC4)C#N)C(=O)N1c5cncc6c5cccc6

> <clash_score>
0

> <docking_score>
3.4028234663852886e+38

> <overlap_score>
1.0

> <MMFF_internal_energy>
137.8828178467348

> <docked_smiles>
C=C1C(=O)[C@]2(C[N@@](Cc3c2cc(cc3)Cl)S(=O)(=O)CC4(CC4)C#N)C(=O)N1c5cncc6c5cccc6

$$$$
JOH-MSK-ccc6e4c0-1_1
  -OEChem-01042202313D

 56 61  0     1  0  0  0  0  0999 V2000
    9.4959    5.5213   23.8149 C   0  0  0  0  0  0  0  0  0  0  0  0
    3.3444    2.6278   20.4409 C   0  0  0  0  0  0  0  0  0  0  0  0
    3.8974    1.9290   21.5048 C   0  0  0  0  0  0  0  0  0  0  0  0
    3.7877    2.4205   19.1658 C   0  0  0  0  0  0  0  0  0  0  0  0
    4.8986    1.0232   21.2985 C   0  0  0  0  0  0  0  0  0  0  0  0
   12.0781    0.0316   24.1532 C   0  0  0  0  0  0  0  0  0  0  0  0
   11.0005   -1.4332   22.0435 C   0  0  0  0  0  0  0  0  0  0  0  0
    5.3288    1.2339   17.6062 C   0  0  0  0  0  0  0  0  0  0  0  0
    6.8449   -0.2893   18.3747 C   0  0  0  0  0  0  0  0  0  0  0  0
    4.8238    1.4906   18.9051 C   0  0  0  0  0  0  0  0  0  0  0  0
    5.3995    0.7732   19.9944 C   0  0  0  0  0  0  0  0  0  0  0  0
   10.7056   -0.0626   23.9890 C   0  0  0  0  0  0  0  0  0  0  0  0
   10.1421   -0.7766   22.9242 C   0  0  0  0  0  0  0  0  0  0  0  0
    6.4452   -0.1472   19.6975 C   0  0  0  0  0  0  0  0  0  0  0  0
   12.9147   -0.6032   23.2559 C   0  0  0  0  0  0  0  0  0  0  0  0
   12.3697   -1.3298   22.2224 C   0  0  0  0  0  0  0  0  0  0  0  0
    8.2504    0.0168   21.4265 C   0  0  0  0  0  0  0  0  0  0  0  0
    6.9880   -1.9367   21.3575 C   0  0  0  0  0  0  0  0  0  0  0  0
    9.9496    0.5589   24.9527 C   0  0  0  0  0  0  0  0  0  0  0  0
    7.5684    6.0285   25.3586 C   0  0  0  0  0  0  0  0  0  0  0  0
    6.9868    5.5697   24.0541 C   0  0  0  0  0  0  0  0  0  0  0  0
    7.8737   -0.1194   23.8825 C   0  0  0  0  0  0  0  0  0  0  0  0
    8.3285    5.0378   24.5057 C   0  0  0  0  0  0  0  0  0  0  0  0
    8.6253   -0.7606   22.6923 C   0  0  3  0  0  0  0  0  0  0  0  0
    8.4035    3.6028   24.9771 C   0  0  0  0  0  0  0  0  0  0  0  0
   10.4365    5.9109   23.2584 N   0  0  0  0  0  0  0  0  0  0  0  0
    6.3072    0.3768   17.3417 N   0  0  0  0  0  0  0  0  0  0  0  0
    8.0155   -2.1541   22.4325 N   0  0  0  0  0  0  0  0  0  0  0  0
    7.2305   -0.6898   20.7785 N   0  0  0  0  0  0  0  0  0  0  0  0
    8.6625    1.0133   24.4989 N   0  0  3  0  0  0  0  0  0  0  0  0
    8.7724    1.0694   21.1186 O   0  0  0  0  0  0  0  0  0  0  0  0
    6.1660   -2.7935   21.1186 O   0  0  0  0  0  0  0  0  0  0  0  0
    7.4283    2.5283   22.8042 O   0  0  0  0  0  0  0  0  0  0  0  0
    9.9359    2.7124   23.0571 O   0  0  0  0  0  0  0  0  0  0  0  0
    8.6228    2.4824   23.6189 S   0  0  0  0  0  0  0  0  0  0  0  0
   14.6219   -0.4524   23.4889 Cl  0  0  0  0  0  0  0  0  0  0  0  0
   13.3805   -2.1655   21.0694 Cl  0  0  0  0  0  0  0  0  0  0  0  0
    2.5443    3.3508   20.6368 H   0  0  0  0  0  0  0  0  0  0  0  0
    3.5189    2.1137   22.5166 H   0  0  0  0  0  0  0  0  0  0  0  0
    3.3421    2.9744   18.3363 H   0  0  0  0  0  0  0  0  0  0  0  0
    5.3131    0.4893   22.1569 H   0  0  0  0  0  0  0  0  0  0  0  0
   12.4869    0.5971   24.9843 H   0  0  0  0  0  0  0  0  0  0  0  0
   10.6035   -2.0213   21.2268 H   0  0  0  0  0  0  0  0  0  0  0  0
    4.9151    1.7511   16.7471 H   0  0  0  0  0  0  0  0  0  0  0  0
    7.6455   -0.9765   18.1038 H   0  0  0  0  0  0  0  0  0  0  0  0
    9.7604   -0.1284   25.8179 H   0  0  0  0  0  0  0  0  0  0  0  0
   10.4958    1.4381   25.3843 H   0  0  0  0  0  0  0  0  0  0  0  0
    7.9228    7.0514   25.4182 H   0  0  0  0  0  0  0  0  0  0  0  0
    7.0997    5.6755   26.2699 H   0  0  0  0  0  0  0  0  0  0  0  0
    6.1276    4.9099   24.0917 H   0  0  0  0  0  0  0  0  0  0  0  0
    6.9513    6.2862   23.2412 H   0  0  0  0  0  0  0  0  0  0  0  0
    6.8949    0.2812   23.5622 H   0  0  0  0  0  0  0  0  0  0  0  0
    7.6776   -0.8743   24.6640 H   0  0  0  0  0  0  0  0  0  0  0  0
    7.4831    3.3109   25.4904 H   0  0  0  0  0  0  0  0  0  0  0  0
    9.2488    3.4572   25.6551 H   0  0  0  0  0  0  0  0  0  0  0  0
    8.2304   -2.9431   22.8420 H   0  0  0  0  0  0  0  0  0  0  0  0
  1 23  1  0  0  0  0
  1 26  3  0  0  0  0
  2  3  2  0  0  0  0
  2  4  1  0  0  0  0
  3  5  1  0  0  0  0
  4 10  2  0  0  0  0
  5 11  2  0  0  0  0
  6 12  2  0  0  0  0
  6 15  1  0  0  0  0
  7 13  2  0  0  0  0
  7 16  1  0  0  0  0
  8 10  1  0  0  0  0
  8 27  2  0  0  0  0
  9 14  2  0  0  0  0
  9 27  1  0  0  0  0
 10 11  1  0  0  0  0
 11 14  1  0  0  0  0
 12 13  1  0  0  0  0
 12 19  1  0  0  0  0
 13 24  1  0  0  0  0
 14 29  1  0  0  0  0
 15 16  2  0  0  0  0
 15 36  1  0  0  0  0
 16 37  1  0  0  0  0
 17 24  1  0  0  0  0
 17 29  1  0  0  0  0
 17 31  2  0  0  0  0
 18 28  1  0  0  0  0
 18 29  1  0  0  0  0
 18 32  2  0  0  0  0
 19 30  1  0  0  0  0
 20 21  1  0  0  0  0
 20 23  1  0  0  0  0
 21 23  1  0  0  0  0
 22 24  1  0  0  0  0
 22 30  1  0  0  0  0
 23 25  1  0  0  0  0
 24 28  1  0  0  0  0
 25 35  1  0  0  0  0
 30 35  1  0  0  0  0
 33 35  2  0  0  0  0
 34 35  2  0  0  0  0
  2 38  1  0  0  0  0
  3 39  1  0  0  0  0
  4 40  1  0  0  0  0
  5 41  1  0  0  0  0
  6 42  1  0  0  0  0
  7 43  1  0  0  0  0
  8 44  1  0  0  0  0
  9 45  1  0  0  0  0
 19 46  1  0  0  0  0
 19 47  1  0  0  0  0
 20 48  1  0  0  0  0
 20 49  1  0  0  0  0
 21 50  1  0  0  0  0
 21 51  1  0  0  0  0
 22 52  1  0  0  0  0
 22 53  1  0  0  0  0
 25 54  1  0  0  0  0
 25 55  1  0  0  0  0
 28 56  1  0  0  0  0
M  END
> <scaffold>
tetrahydroisoquinoline-5spiro-isoquinoline

> <compound>
JOH-MSK-ccc6e4c0-1

> <compound_smiles>
c1ccc2c(c1)cncc2N3C(=O)C4(CN(Cc5c4cc(c(c5)Cl)Cl)S(=O)(=O)CC6(CC6)C#N)NC3=O

> <enantiomer_smiles>
c1ccc2c(c1)cncc2N3C(=O)[C@]4(C[N@@](Cc5c4cc(c(c5)Cl)Cl)S(=O)(=O)CC6(CC6)C#N)NC3=O

> <clash_score>
0

> <docking_score>
3.4028234663852886e+38

> <overlap_score>
1.0

> <MMFF_internal_energy>
111.65935621874358

> <docked_smiles>
c1ccc2c(c1)cncc2N3C(=O)[C@]4(C[N@@](Cc5c4cc(c(c5)Cl)Cl)S(=O)(=O)CC6(CC6)C#N)NC3=O

$$$$
MAT-POS-853c0ffa-22_1
  -OEChem-01042202313D

 66 71  0     1  0  0  0  0  0999 V2000
    4.8986    1.0232   21.2985 C   0  0  0  0  0  0  0  0  0  0  0  0
   12.0781    0.0316   24.1532 C   0  0  0  0  0  0  0  0  0  0  0  0
    3.8974    1.9290   21.5048 C   0  0  0  0  0  0  0  0  0  0  0  0
   12.9147   -0.6032   23.2559 C   0  0  0  0  0  0  0  0  0  0  0  0
    3.7877    2.4205   19.1658 C   0  0  0  0  0  0  0  0  0  0  0  0
   11.0005   -1.4332   22.0435 C   0  0  0  0  0  0  0  0  0  0  0  0
    5.3288    1.2339   17.6062 C   0  0  0  0  0  0  0  0  0  0  0  0
    6.8449   -0.2893   18.3747 C   0  0  0  0  0  0  0  0  0  0  0  0
    5.3995    0.7732   19.9944 C   0  0  0  0  0  0  0  0  0  0  0  0
    4.8238    1.4906   18.9051 C   0  0  0  0  0  0  0  0  0  0  0  0
   10.7056   -0.0626   23.9890 C   0  0  0  0  0  0  0  0  0  0  0  0
   10.1421   -0.7766   22.9242 C   0  0  0  0  0  0  0  0  0  0  0  0
    6.4452   -0.1472   19.6975 C   0  0  0  0  0  0  0  0  0  0  0  0
    3.3444    2.6278   20.4409 C   0  0  0  0  0  0  0  0  0  0  0  0
   12.3697   -1.3298   22.2224 C   0  0  0  0  0  0  0  0  0  0  0  0
    8.2504    0.0168   21.4265 C   0  0  0  0  0  0  0  0  0  0  0  0
    9.9496    0.5589   24.9527 C   0  0  0  0  0  0  0  0  0  0  0  0
    7.5795    2.5373   28.9869 C   0  0  0  0  0  0  0  0  0  0  0  0
    7.1785    1.1826   29.4969 C   0  0  0  0  0  0  0  0  0  0  0  0
    8.0155   -2.1541   22.4325 C   0  0  0  0  0  0  0  0  0  0  0  0
    6.9880   -1.9367   21.3575 C   0  0  0  0  0  0  0  0  0  0  0  0
    7.8737   -0.1194   23.8825 C   0  0  0  0  0  0  0  0  0  0  0  0
    8.6253   -0.7606   22.6923 C   0  0  3  0  0  0  0  0  0  0  0  0
    6.8379    1.5828   28.0804 C   0  0  0  0  0  0  0  0  0  0  0  0
    5.4005    1.8877   27.7599 C   0  0  0  0  0  0  0  0  0  0  0  0
    0.5640    2.8387   20.6224 C   0  0  0  0  0  0  0  0  0  0  0  0
    7.6088    0.9304   26.9546 C   0  0  0  0  0  0  0  0  0  0  0  0
    6.3072    0.3768   17.3417 N   0  0  0  0  0  0  0  0  0  0  0  0
    7.2305   -0.6898   20.7785 N   0  0  0  0  0  0  0  0  0  0  0  0
    8.6625    1.0133   24.4989 N   0  0  3  0  0  0  0  0  0  0  0  0
    8.8314    1.0394   21.0790 O   0  0  0  0  0  0  0  0  0  0  0  0
    2.1938    4.2339   22.1297 O   0  0  0  0  0  0  0  0  0  0  0  0
    2.0373    4.7678   19.6728 O   0  0  0  0  0  0  0  0  0  0  0  0
    6.4559    2.2241   24.9990 O   0  0  0  0  0  0  0  0  0  0  0  0
    8.6119    3.1278   25.9583 O   0  0  0  0  0  0  0  0  0  0  0  0
    2.0628    3.7877   20.7500 S   0  0  0  0  0  0  0  0  0  0  0  0
    7.7725    2.0180   25.5623 S   0  0  0  0  0  0  0  0  0  0  0  0
   13.4285   -2.1410   21.1076 Cl  0  0  0  0  0  0  0  0  0  0  0  0
    5.3127    0.4890   22.1568 H   0  0  0  0  0  0  0  0  0  0  0  0
   12.5038    0.5986   24.9731 H   0  0  0  0  0  0  0  0  0  0  0  0
    3.5274    2.1069   22.5215 H   0  0  0  0  0  0  0  0  0  0  0  0
   13.9925   -0.5165   23.3773 H   0  0  0  0  0  0  0  0  0  0  0  0
    3.3498    2.9707   18.3288 H   0  0  0  0  0  0  0  0  0  0  0  0
   10.6052   -2.0169   21.2237 H   0  0  0  0  0  0  0  0  0  0  0  0
    4.9155    1.7517   16.7470 H   0  0  0  0  0  0  0  0  0  0  0  0
    7.6461   -0.9756   18.1037 H   0  0  0  0  0  0  0  0  0  0  0  0
    9.7866   -0.1187   25.8304 H   0  0  0  0  0  0  0  0  0  0  0  0
   10.4816    1.4567   25.3600 H   0  0  0  0  0  0  0  0  0  0  0  0
    7.0508    3.3986   29.3777 H   0  0  0  0  0  0  0  0  0  0  0  0
    8.6328    2.7143   28.8042 H   0  0  0  0  0  0  0  0  0  0  0  0
    7.9633    0.4526   29.6559 H   0  0  0  0  0  0  0  0  0  0  0  0
    6.3812    1.1368   30.2294 H   0  0  0  0  0  0  0  0  0  0  0  0
    7.5167   -2.5459   23.3332 H   0  0  0  0  0  0  0  0  0  0  0  0
    8.7666   -2.9029   22.1426 H   0  0  0  0  0  0  0  0  0  0  0  0
    7.0601   -2.7250   20.5715 H   0  0  0  0  0  0  0  0  0  0  0  0
    5.9530   -1.9963   21.7709 H   0  0  0  0  0  0  0  0  0  0  0  0
    6.8882    0.2643   23.5640 H   0  0  0  0  0  0  0  0  0  0  0  0
    7.6667   -0.8657   24.6729 H   0  0  0  0  0  0  0  0  0  0  0  0
    4.9759    1.1244   27.0964 H   0  0  0  0  0  0  0  0  0  0  0  0
    5.3077    2.8595   27.2598 H   0  0  0  0  0  0  0  0  0  0  0  0
    4.7928    1.9179   28.6726 H   0  0  0  0  0  0  0  0  0  0  0  0
   -0.2812    3.5029   20.8096 H   0  0  0  0  0  0  0  0  0  0  0  0
    0.5060    2.4202   19.6165 H   0  0  0  0  0  0  0  0  0  0  0  0
    0.5966    2.0420   21.3670 H   0  0  0  0  0  0  0  0  0  0  0  0
    7.0989    0.0296   26.6018 H   0  0  0  0  0  0  0  0  0  0  0  0
    8.6192    0.6630   27.2756 H   0  0  0  0  0  0  0  0  0  0  0  0
  1  3  2  0  0  0  0
  1  9  1  0  0  0  0
  2  4  2  0  0  0  0
  2 11  1  0  0  0  0
  3 14  1  0  0  0  0
  4 15  1  0  0  0  0
  5 10  1  0  0  0  0
  5 14  2  0  0  0  0
  6 12  1  0  0  0  0
  6 15  2  0  0  0  0
  7 10  2  0  0  0  0
  7 28  1  0  0  0  0
  8 13  1  0  0  0  0
  8 28  2  0  0  0  0
  9 10  1  0  0  0  0
  9 13  2  0  0  0  0
 11 12  2  0  0  0  0
 11 17  1  0  0  0  0
 12 23  1  0  0  0  0
 13 29  1  0  0  0  0
 14 36  1  0  0  0  0
 15 38  1  0  0  0  0
 16 23  1  0  0  0  0
 16 29  1  0  0  0  0
 16 31  2  0  0  0  0
 17 30  1  0  0  0  0
 18 19  1  0  0  0  0
 18 24  1  0  0  0  0
 19 24  1  0  0  0  0
 20 21  1  0  0  0  0
 20 23  1  0  0  0  0
 21 29  1  0  0  0  0
 22 23  1  0  0  0  0
 22 30  1  0  0  0  0
 24 25  1  0  0  0  0
 24 27  1  0  0  0  0
 26 36  1  0  0  0  0
 27 37  1  0  0  0  0
 30 37  1  0  0  0  0
 32 36  2  0  0  0  0
 33 36  2  0  0  0  0
 34 37  2  0  0  0  0
 35 37  2  0  0  0  0
  1 39  1  0  0  0  0
  2 40  1  0  0  0  0
  3 41  1  0  0  0  0
  4 42  1  0  0  0  0
  5 43  1  0  0  0  0
  6 44  1  0  0  0  0
  7 45  1  0  0  0  0
  8 46  1  0  0  0  0
 17 47  1  0  0  0  0
 17 48  1  0  0  0  0
 18 49  1  0  0  0  0
 18 50  1  0  0  0  0
 19 51  1  0  0  0  0
 19 52  1  0  0  0  0
 20 53  1  0  0  0  0
 20 54  1  0  0  0  0
 21 55  1  0  0  0  0
 21 56  1  0  0  0  0
 22 57  1  0  0  0  0
 22 58  1  0  0  0  0
 25 59  1  0  0  0  0
 25 60  1  0  0  0  0
 25 61  1  0  0  0  0
 26 62  1  0  0  0  0
 26 63  1  0  0  0  0
 26 64  1  0  0  0  0
 27 65  1  0  0  0  0
 27 66  1  0  0  0  0
M  END
> <scaffold>
tetrahydroisoquinoline-5spiro-isoquinoline

> <compound>
MAT-POS-853c0ffa-22

> <compound_smiles>
CC1(CC1)CS(=O)(=O)N2Cc3ccc(cc3C4(C2)CCN(C4=O)c5cncc6c5ccc(c6)S(=O)(=O)C)Cl

> <enantiomer_smiles>
CC1(CC1)CS(=O)(=O)[N@]2Cc3ccc(cc3[C@@]4(C2)CCN(C4=O)c5cncc6c5ccc(c6)S(=O)(=O)C)Cl

> <clash_score>
0.711058701657536

> <docking_score>
3.4028234663852886e+38

> <overlap_score>
0.9757396578788757

> <MMFF_internal_energy>
167.04553628170999

> <docked_smiles>
CC1(CC1)CS(=O)(=O)[N@]2Cc3ccc(cc3[C@@]4(C2)CCN(C4=O)c5cncc6c5ccc(c6)S(=O)(=O)C)Cl

$$$$
MAT-POS-853c0ffa-15_1
  -OEChem-01042202313D

 64 69  0     1  0  0  0  0  0999 V2000
    6.5923    2.6670   28.4298 C   0  0  0  0  0  0  0  0  0  0  0  0
    4.8986    1.0232   21.2985 C   0  0  0  0  0  0  0  0  0  0  0  0
   12.0781    0.0316   24.1532 C   0  0  0  0  0  0  0  0  0  0  0  0
    3.8974    1.9290   21.5048 C   0  0  0  0  0  0  0  0  0  0  0  0
   12.9147   -0.6032   23.2559 C   0  0  0  0  0  0  0  0  0  0  0  0
    3.7877    2.4205   19.1658 C   0  0  0  0  0  0  0  0  0  0  0  0
   11.0005   -1.4332   22.0435 C   0  0  0  0  0  0  0  0  0  0  0  0
    5.3288    1.2339   17.6062 C   0  0  0  0  0  0  0  0  0  0  0  0
    6.8449   -0.2893   18.3747 C   0  0  0  0  0  0  0  0  0  0  0  0
    5.3995    0.7732   19.9944 C   0  0  0  0  0  0  0  0  0  0  0  0
    4.8238    1.4906   18.9051 C   0  0  0  0  0  0  0  0  0  0  0  0
   10.7056   -0.0626   23.9890 C   0  0  0  0  0  0  0  0  0  0  0  0
   10.1421   -0.7766   22.9242 C   0  0  0  0  0  0  0  0  0  0  0  0
    6.4452   -0.1472   19.6975 C   0  0  0  0  0  0  0  0  0  0  0  0
    3.3444    2.6278   20.4409 C   0  0  0  0  0  0  0  0  0  0  0  0
   12.3697   -1.3298   22.2224 C   0  0  0  0  0  0  0  0  0  0  0  0
    8.2504    0.0168   21.4265 C   0  0  0  0  0  0  0  0  0  0  0  0
    9.9496    0.5589   24.9527 C   0  0  0  0  0  0  0  0  0  0  0  0
    5.7974    0.2895   28.6968 C   0  0  0  0  0  0  0  0  0  0  0  0
    5.0772    0.8711   27.5163 C   0  0  0  0  0  0  0  0  0  0  0  0
    8.0155   -2.1541   22.4325 C   0  0  0  0  0  0  0  0  0  0  0  0
    6.9880   -1.9367   21.3575 C   0  0  0  0  0  0  0  0  0  0  0  0
    7.8737   -0.1194   23.8825 C   0  0  0  0  0  0  0  0  0  0  0  0
    6.4702    1.3516   27.8565 C   0  0  0  0  0  0  0  0  0  0  0  0
    8.6253   -0.7606   22.6923 C   0  0  3  0  0  0  0  0  0  0  0  0
    0.5640    2.8387   20.6224 C   0  0  0  0  0  0  0  0  0  0  0  0
    7.6088    0.9304   26.9546 C   0  0  0  0  0  0  0  0  0  0  0  0
    6.6907    3.7268   28.8917 N   0  0  0  0  0  0  0  0  0  0  0  0
    6.3072    0.3768   17.3417 N   0  0  0  0  0  0  0  0  0  0  0  0
    7.2305   -0.6898   20.7785 N   0  0  0  0  0  0  0  0  0  0  0  0
    8.6625    1.0133   24.4989 N   0  0  3  0  0  0  0  0  0  0  0  0
    8.8314    1.0394   21.0790 O   0  0  0  0  0  0  0  0  0  0  0  0
    2.1938    4.2339   22.1297 O   0  0  0  0  0  0  0  0  0  0  0  0
    2.0373    4.7678   19.6728 O   0  0  0  0  0  0  0  0  0  0  0  0
    6.4559    2.2241   24.9990 O   0  0  0  0  0  0  0  0  0  0  0  0
    8.6119    3.1278   25.9583 O   0  0  0  0  0  0  0  0  0  0  0  0
    2.0628    3.7877   20.7500 S   0  0  0  0  0  0  0  0  0  0  0  0
    7.7725    2.0180   25.5623 S   0  0  0  0  0  0  0  0  0  0  0  0
   13.4285   -2.1410   21.1076 Cl  0  0  0  0  0  0  0  0  0  0  0  0
    5.3127    0.4890   22.1568 H   0  0  0  0  0  0  0  0  0  0  0  0
   12.5038    0.5986   24.9731 H   0  0  0  0  0  0  0  0  0  0  0  0
    3.5274    2.1069   22.5215 H   0  0  0  0  0  0  0  0  0  0  0  0
   13.9925   -0.5165   23.3773 H   0  0  0  0  0  0  0  0  0  0  0  0
    3.3498    2.9707   18.3288 H   0  0  0  0  0  0  0  0  0  0  0  0
   10.6052   -2.0169   21.2237 H   0  0  0  0  0  0  0  0  0  0  0  0
    4.9155    1.7517   16.7470 H   0  0  0  0  0  0  0  0  0  0  0  0
    7.6461   -0.9756   18.1037 H   0  0  0  0  0  0  0  0  0  0  0  0
    9.7866   -0.1187   25.8304 H   0  0  0  0  0  0  0  0  0  0  0  0
   10.4816    1.4567   25.3600 H   0  0  0  0  0  0  0  0  0  0  0  0
    5.4358    0.5518   29.6847 H   0  0  0  0  0  0  0  0  0  0  0  0
    6.1481   -0.7331   28.6181 H   0  0  0  0  0  0  0  0  0  0  0  0
    4.9448    0.2375   26.6469 H   0  0  0  0  0  0  0  0  0  0  0  0
    4.2331    1.5218   27.7145 H   0  0  0  0  0  0  0  0  0  0  0  0
    7.5167   -2.5459   23.3332 H   0  0  0  0  0  0  0  0  0  0  0  0
    8.7666   -2.9029   22.1426 H   0  0  0  0  0  0  0  0  0  0  0  0
    7.0601   -2.7250   20.5715 H   0  0  0  0  0  0  0  0  0  0  0  0
    5.9530   -1.9963   21.7709 H   0  0  0  0  0  0  0  0  0  0  0  0
    6.8882    0.2643   23.5640 H   0  0  0  0  0  0  0  0  0  0  0  0
    7.6667   -0.8657   24.6729 H   0  0  0  0  0  0  0  0  0  0  0  0
   -0.2812    3.5029   20.8096 H   0  0  0  0  0  0  0  0  0  0  0  0
    0.5060    2.4202   19.6165 H   0  0  0  0  0  0  0  0  0  0  0  0
    0.5966    2.0420   21.3670 H   0  0  0  0  0  0  0  0  0  0  0  0
    7.4436   -0.0759   26.5599 H   0  0  0  0  0  0  0  0  0  0  0  0
    8.5609    0.9485   27.4918 H   0  0  0  0  0  0  0  0  0  0  0  0
  1 24  1  0  0  0  0
  1 28  3  0  0  0  0
  2  4  2  0  0  0  0
  2 10  1  0  0  0  0
  3  5  2  0  0  0  0
  3 12  1  0  0  0  0
  4 15  1  0  0  0  0
  5 16  1  0  0  0  0
  6 11  1  0  0  0  0
  6 15  2  0  0  0  0
  7 13  1  0  0  0  0
  7 16  2  0  0  0  0
  8 11  2  0  0  0  0
  8 29  1  0  0  0  0
  9 14  1  0  0  0  0
  9 29  2  0  0  0  0
 10 11  1  0  0  0  0
 10 14  2  0  0  0  0
 12 13  2  0  0  0  0
 12 18  1  0  0  0  0
 13 25  1  0  0  0  0
 14 30  1  0  0  0  0
 15 37  1  0  0  0  0
 16 39  1  0  0  0  0
 17 25  1  0  0  0  0
 17 30  1  0  0  0  0
 17 32  2  0  0  0  0
 18 31  1  0  0  0  0
 19 20  1  0  0  0  0
 19 24  1  0  0  0  0
 20 24  1  0  0  0  0
 21 22  1  0  0  0  0
 21 25  1  0  0  0  0
 22 30  1  0  0  0  0
 23 25  1  0  0  0  0
 23 31  1  0  0  0  0
 24 27  1  0  0  0  0
 26 37  1  0  0  0  0
 27 38  1  0  0  0  0
 31 38  1  0  0  0  0
 33 37  2  0  0  0  0
 34 37  2  0  0  0  0
 35 38  2  0  0  0  0
 36 38  2  0  0  0  0
  2 40  1  0  0  0  0
  3 41  1  0  0  0  0
  4 42  1  0  0  0  0
  5 43  1  0  0  0  0
  6 44  1  0  0  0  0
  7 45  1  0  0  0  0
  8 46  1  0  0  0  0
  9 47  1  0  0  0  0
 18 48  1  0  0  0  0
 18 49  1  0  0  0  0
 19 50  1  0  0  0  0
 19 51  1  0  0  0  0
 20 52  1  0  0  0  0
 20 53  1  0  0  0  0
 21 54  1  0  0  0  0
 21 55  1  0  0  0  0
 22 56  1  0  0  0  0
 22 57  1  0  0  0  0
 23 58  1  0  0  0  0
 23 59  1  0  0  0  0
 26 60  1  0  0  0  0
 26 61  1  0  0  0  0
 26 62  1  0  0  0  0
 27 63  1  0  0  0  0
 27 64  1  0  0  0  0
M  END
> <scaffold>
tetrahydroisoquinoline-5spiro-isoquinoline

> <compound>
MAT-POS-853c0ffa-15

> <compound_smiles>
CS(=O)(=O)c1ccc2c(c1)cncc2N3CCC4(C3=O)CN(Cc5c4cc(cc5)Cl)S(=O)(=O)CC6(CC6)C#N

> <enantiomer_smiles>
CS(=O)(=O)c1ccc2c(c1)cncc2N3CC[C@]4(C3=O)C[N@](Cc5c4cc(cc5)Cl)S(=O)(=O)CC6(CC6)C#N

> <clash_score>
0.711058701657536

> <docking_score>
3.4028234663852886e+38

> <overlap_score>
0.9739317893981934

> <MMFF_internal_energy>
139.70096388390064

> <docked_smiles>
CS(=O)(=O)c1ccc2c(c1)cncc2N3CC[C@]4(C3=O)C[N@](Cc5c4cc(cc5)Cl)S(=O)(=O)CC6(CC6)C#N

$$$$
MAT-POS-50a80394-3_2
  -OEChem-01042202313D

 67 72  0     1  0  0  0  0  0999 V2000
    6.5963    2.6214   28.4532 C   0  0  0  0  0  0  0  0  0  0  0  0
    3.3444    2.6278   20.4409 C   0  0  0  0  0  0  0  0  0  0  0  0
    3.8974    1.9290   21.5048 C   0  0  0  0  0  0  0  0  0  0  0  0
    3.7877    2.4205   19.1658 C   0  0  0  0  0  0  0  0  0  0  0  0
    4.8986    1.0232   21.2985 C   0  0  0  0  0  0  0  0  0  0  0  0
   12.0781    0.0316   24.1532 C   0  0  0  0  0  0  0  0  0  0  0  0
   12.9147   -0.6032   23.2559 C   0  0  0  0  0  0  0  0  0  0  0  0
   11.0005   -1.4332   22.0435 C   0  0  0  0  0  0  0  0  0  0  0  0
    5.3288    1.2339   17.6062 C   0  0  0  0  0  0  0  0  0  0  0  0
    6.8449   -0.2893   18.3747 C   0  0  0  0  0  0  0  0  0  0  0  0
    4.8238    1.4906   18.9051 C   0  0  0  0  0  0  0  0  0  0  0  0
    5.3995    0.7732   19.9944 C   0  0  0  0  0  0  0  0  0  0  0  0
   10.7056   -0.0626   23.9890 C   0  0  0  0  0  0  0  0  0  0  0  0
   10.1421   -0.7766   22.9242 C   0  0  0  0  0  0  0  0  0  0  0  0
    6.4452   -0.1472   19.6975 C   0  0  0  0  0  0  0  0  0  0  0  0
   12.3697   -1.3298   22.2224 C   0  0  0  0  0  0  0  0  0  0  0  0
    8.2504    0.0168   21.4265 C   0  0  0  0  0  0  0  0  0  0  0  0
    9.9496    0.5589   24.9527 C   0  0  0  0  0  0  0  0  0  0  0  0
    5.8064    0.2393   28.6932 C   0  0  0  0  0  0  0  0  0  0  0  0
    5.0824    0.8338   27.5215 C   0  0  0  0  0  0  0  0  0  0  0  0
    6.9880   -1.9367   21.3575 C   0  0  0  0  0  0  0  0  0  0  0  0
    7.8737   -0.1194   23.8825 C   0  0  0  0  0  0  0  0  0  0  0  0
    8.0155   -2.1541   22.4325 C   0  0  1  0  0  0  0  0  0  0  0  0
    6.4753    1.3128   27.8643 C   0  0  0  0  0  0  0  0  0  0  0  0
    8.6253   -0.7606   22.6923 C   0  0  3  0  0  0  0  0  0  0  0  0
    6.8648   -4.2473   23.2634 C   0  0  0  0  0  0  0  0  0  0  0  0
    8.5060   -3.0436   24.7335 C   0  0  0  0  0  0  0  0  0  0  0  0
    7.6126    0.9047   26.9548 C   0  0  0  0  0  0  0  0  0  0  0  0
    7.4364   -2.8845   23.6536 C   0  0  0  0  0  0  0  0  0  0  0  0
    6.6938    3.6757   28.9276 N   0  0  0  0  0  0  0  0  0  0  0  0
    6.3072    0.3768   17.3417 N   0  0  0  0  0  0  0  0  0  0  0  0
    7.2305   -0.6898   20.7785 N   0  0  0  0  0  0  0  0  0  0  0  0
    8.6625    1.0133   24.4989 N   0  0  3  0  0  0  0  0  0  0  0  0
    8.7564    1.0945   21.1276 O   0  0  0  0  0  0  0  0  0  0  0  0
    6.4510    2.2306   25.0260 O   0  0  0  0  0  0  0  0  0  0  0  0
    8.6207    3.1088   25.9784 O   0  0  0  0  0  0  0  0  0  0  0  0
    7.7710    2.0095   25.5754 S   0  0  0  0  0  0  0  0  0  0  0  0
   13.4308   -2.1348   21.1056 Cl  0  0  0  0  0  0  0  0  0  0  0  0
    2.5443    3.3508   20.6368 H   0  0  0  0  0  0  0  0  0  0  0  0
    3.5189    2.1137   22.5166 H   0  0  0  0  0  0  0  0  0  0  0  0
    3.3421    2.9744   18.3363 H   0  0  0  0  0  0  0  0  0  0  0  0
    5.3131    0.4893   22.1569 H   0  0  0  0  0  0  0  0  0  0  0  0
   12.5054    0.6049   24.9675 H   0  0  0  0  0  0  0  0  0  0  0  0
   13.9932   -0.5074   23.3714 H   0  0  0  0  0  0  0  0  0  0  0  0
   10.6222   -2.0064   21.2137 H   0  0  0  0  0  0  0  0  0  0  0  0
    4.9151    1.7511   16.7471 H   0  0  0  0  0  0  0  0  0  0  0  0
    7.6455   -0.9765   18.1038 H   0  0  0  0  0  0  0  0  0  0  0  0
    9.7909   -0.1143   25.8380 H   0  0  0  0  0  0  0  0  0  0  0  0
   10.4818    1.4596   25.3602 H   0  0  0  0  0  0  0  0  0  0  0  0
    5.4466    0.4889   29.6850 H   0  0  0  0  0  0  0  0  0  0  0  0
    6.1589   -0.7815   28.6012 H   0  0  0  0  0  0  0  0  0  0  0  0
    4.9492    0.2106   26.6447 H   0  0  0  0  0  0  0  0  0  0  0  0
    4.2376    1.4805   27.7296 H   0  0  0  0  0  0  0  0  0  0  0  0
    7.0312   -2.7477   20.5866 H   0  0  0  0  0  0  0  0  0  0  0  0
    5.9438   -1.9532   21.7606 H   0  0  0  0  0  0  0  0  0  0  0  0
    6.8939    0.2803   23.5674 H   0  0  0  0  0  0  0  0  0  0  0  0
    7.6782   -0.8497   24.6876 H   0  0  0  0  0  0  0  0  0  0  0  0
    8.7699   -2.8427   22.0103 H   0  0  0  0  0  0  0  0  0  0  0  0
    7.6398   -4.8978   22.8436 H   0  0  0  0  0  0  0  0  0  0  0  0
    6.0741   -4.1356   22.5140 H   0  0  0  0  0  0  0  0  0  0  0  0
    6.4326   -4.7533   24.1332 H   0  0  0  0  0  0  0  0  0  0  0  0
    9.3478   -3.6451   24.3737 H   0  0  0  0  0  0  0  0  0  0  0  0
    8.0946   -3.5341   25.6221 H   0  0  0  0  0  0  0  0  0  0  0  0
    8.8948   -2.0668   25.0405 H   0  0  0  0  0  0  0  0  0  0  0  0
    7.4484   -0.0970   26.5482 H   0  0  0  0  0  0  0  0  0  0  0  0
    8.5659    0.9182   27.4899 H   0  0  0  0  0  0  0  0  0  0  0  0
    6.6206   -2.2764   24.0663 H   0  0  0  0  0  0  0  0  0  0  0  0
  1 24  1  0  0  0  0
  1 30  3  0  0  0  0
  2  3  2  0  0  0  0
  2  4  1  0  0  0  0
  3  5  1  0  0  0  0
  4 11  2  0  0  0  0
  5 12  2  0  0  0  0
  6  7  2  0  0  0  0
  6 13  1  0  0  0  0
  7 16  1  0  0  0  0
  8 14  1  0  0  0  0
  8 16  2  0  0  0  0
  9 11  1  0  0  0  0
  9 31  2  0  0  0  0
 10 15  2  0  0  0  0
 10 31  1  0  0  0  0
 11 12  1  0  0  0  0
 12 15  1  0  0  0  0
 13 14  2  0  0  0  0
 13 18  1  0  0  0  0
 14 25  1  0  0  0  0
 15 32  1  0  0  0  0
 16 38  1  0  0  0  0
 17 25  1  0  0  0  0
 17 32  1  0  0  0  0
 17 34  2  0  0  0  0
 18 33  1  0  0  0  0
 19 20  1  0  0  0  0
 19 24  1  0  0  0  0
 20 24  1  0  0  0  0
 21 23  1  0  0  0  0
 21 32  1  0  0  0  0
 22 25  1  0  0  0  0
 22 33  1  0  0  0  0
 23 25  1  0  0  0  0
 23 29  1  6  0  0  0
 24 28  1  0  0  0  0
 26 29  1  0  0  0  0
 27 29  1  0  0  0  0
 28 37  1  0  0  0  0
 33 37  1  0  0  0  0
 35 37  2  0  0  0  0
 36 37  2  0  0  0  0
  2 39  1  0  0  0  0
  3 40  1  0  0  0  0
  4 41  1  0  0  0  0
  5 42  1  0  0  0  0
  6 43  1  0  0  0  0
  7 44  1  0  0  0  0
  8 45  1  0  0  0  0
  9 46  1  0  0  0  0
 10 47  1  0  0  0  0
 18 48  1  0  0  0  0
 18 49  1  0  0  0  0
 19 50  1  0  0  0  0
 19 51  1  0  0  0  0
 20 52  1  0  0  0  0
 20 53  1  0  0  0  0
 21 54  1  0  0  0  0
 21 55  1  0  0  0  0
 22 56  1  0  0  0  0
 22 57  1  0  0  0  0
 23 58  1  0  0  0  0
 26 59  1  0  0  0  0
 26 60  1  0  0  0  0
 26 61  1  0  0  0  0
 27 62  1  0  0  0  0
 27 63  1  0  0  0  0
 27 64  1  0  0  0  0
 28 65  1  0  0  0  0
 28 66  1  0  0  0  0
 29 67  1  0  0  0  0
M  END
> <scaffold>
tetrahydroisoquinoline-5spiro-isoquinoline

> <compound>
MAT-POS-50a80394-3

> <compound_smiles>
CC(C)C1CN(C(=O)C12CN(Cc3c2cc(cc3)Cl)S(=O)(=O)CC4(CC4)C#N)c5cncc6c5cccc6

> <enantiomer_smiles>
CC(C)[C@H]1CN(C(=O)[C@@]12C[N@](Cc3c2cc(cc3)Cl)S(=O)(=O)CC4(CC4)C#N)c5cncc6c5cccc6

> <clash_score>
0.7290132201972204

> <docking_score>
3.4028234663852886e+38

> <overlap_score>
0.9789563417434692

> <MMFF_internal_energy>
135.75078612413452

> <docked_smiles>
CC(C)[C@H]1CN(C(=O)[C@@]12C[N@](Cc3c2cc(cc3)Cl)S(=O)(=O)CC4(CC4)C#N)c5cncc6c5cccc6

$$$$
VLA-UNK-61877630-9_2
  -OEChem-01042202313D

 61 66  0     1  0  0  0  0  0999 V2000
    7.8951    4.6834   27.3720 C   0  0  0  0  0  0  0  0  0  0  0  0
    3.3444    2.6278   20.4409 C   0  0  0  0  0  0  0  0  0  0  0  0
    3.8974    1.9290   21.5048 C   0  0  0  0  0  0  0  0  0  0  0  0
    3.7877    2.4205   19.1658 C   0  0  0  0  0  0  0  0  0  0  0  0
    4.8986    1.0232   21.2985 C   0  0  0  0  0  0  0  0  0  0  0  0
   12.0781    0.0316   24.1532 C   0  0  0  0  0  0  0  0  0  0  0  0
   12.9147   -0.6032   23.2559 C   0  0  0  0  0  0  0  0  0  0  0  0
   11.0005   -1.4332   22.0435 C   0  0  0  0  0  0  0  0  0  0  0  0
    5.3288    1.2339   17.6062 C   0  0  0  0  0  0  0  0  0  0  0  0
    6.8449   -0.2893   18.3747 C   0  0  0  0  0  0  0  0  0  0  0  0
    4.8238    1.4906   18.9051 C   0  0  0  0  0  0  0  0  0  0  0  0
    5.3995    0.7732   19.9944 C   0  0  0  0  0  0  0  0  0  0  0  0
   10.7056   -0.0626   23.9890 C   0  0  0  0  0  0  0  0  0  0  0  0
   10.1421   -0.7766   22.9242 C   0  0  0  0  0  0  0  0  0  0  0  0
    6.4452   -0.1472   19.6975 C   0  0  0  0  0  0  0  0  0  0  0  0
   12.3697   -1.3298   22.2224 C   0  0  0  0  0  0  0  0  0  0  0  0
    8.2504    0.0168   21.4265 C   0  0  0  0  0  0  0  0  0  0  0  0
    9.9496    0.5589   24.9527 C   0  0  0  0  0  0  0  0  0  0  0  0
    7.8220    5.5867   25.0194 C   0  0  0  0  0  0  0  0  0  0  0  0
    9.1445    5.9805   25.6080 C   0  0  0  0  0  0  0  0  0  0  0  0
    8.0155   -2.1541   22.4325 C   0  0  0  0  0  0  0  0  0  0  0  0
    6.9880   -1.9367   21.3575 C   0  0  0  0  0  0  0  0  0  0  0  0
    7.8737   -0.1194   23.8825 C   0  0  1  0  0  0  0  0  0  0  0  0
    8.4764    4.6994   26.0546 C   0  0  0  0  0  0  0  0  0  0  0  0
    8.6253   -0.7606   22.6923 C   0  0  1  0  0  0  0  0  0  0  0  0
    9.0719    3.3878   25.5939 C   0  0  0  0  0  0  0  0  0  0  0  0
    6.4290    0.3439   23.5267 C   0  0  0  0  0  0  0  0  0  0  0  0
    7.4268    4.6704   28.4335 N   0  0  0  0  0  0  0  0  0  0  0  0
    6.3072    0.3768   17.3417 N   0  0  0  0  0  0  0  0  0  0  0  0
    7.2305   -0.6898   20.7785 N   0  0  0  0  0  0  0  0  0  0  0  0
    8.6625    1.0133   24.4989 N   0  0  3  0  0  0  0  0  0  0  0  0
    8.7596    1.0912   21.1320 O   0  0  0  0  0  0  0  0  0  0  0  0
    7.8143    1.4940   26.8821 O   0  0  0  0  0  0  0  0  0  0  0  0
    6.6705    2.6065   24.9226 O   0  0  0  0  0  0  0  0  0  0  0  0
    5.8277    0.8607   24.6055 F   0  0  0  0  0  0  0  0  0  0  0  0
    6.4679    1.2677   22.5584 F   0  0  0  0  0  0  0  0  0  0  0  0
    5.7312   -0.7153   23.0979 F   0  0  0  0  0  0  0  0  0  0  0  0
    7.8576    2.0954   25.5688 S   0  0  0  0  0  0  0  0  0  0  0  0
   13.4297   -2.1372   21.1063 Cl  0  0  0  0  0  0  0  0  0  0  0  0
    2.5443    3.3508   20.6368 H   0  0  0  0  0  0  0  0  0  0  0  0
    3.5189    2.1137   22.5166 H   0  0  0  0  0  0  0  0  0  0  0  0
    3.3421    2.9744   18.3363 H   0  0  0  0  0  0  0  0  0  0  0  0
    5.3131    0.4893   22.1569 H   0  0  0  0  0  0  0  0  0  0  0  0
   12.5049    0.5960   24.9737 H   0  0  0  0  0  0  0  0  0  0  0  0
   13.9932   -0.5186   23.3793 H   0  0  0  0  0  0  0  0  0  0  0  0
   10.6195   -2.0197   21.2227 H   0  0  0  0  0  0  0  0  0  0  0  0
    4.9151    1.7511   16.7471 H   0  0  0  0  0  0  0  0  0  0  0  0
    7.6455   -0.9765   18.1038 H   0  0  0  0  0  0  0  0  0  0  0  0
    9.7832   -0.1210   25.8218 H   0  0  0  0  0  0  0  0  0  0  0  0
   10.4841    1.4524   25.3531 H   0  0  0  0  0  0  0  0  0  0  0  0
    6.9531    6.1706   25.3014 H   0  0  0  0  0  0  0  0  0  0  0  0
    7.8094    5.2565   23.9871 H   0  0  0  0  0  0  0  0  0  0  0  0
   10.0179    5.9150   24.9694 H   0  0  0  0  0  0  0  0  0  0  0  0
    9.1604    6.8287   26.2830 H   0  0  0  0  0  0  0  0  0  0  0  0
    7.5739   -2.6058   23.3301 H   0  0  0  0  0  0  0  0  0  0  0  0
    8.7621   -2.8642   22.0616 H   0  0  0  0  0  0  0  0  0  0  0  0
    7.0265   -2.7474   20.5943 H   0  0  0  0  0  0  0  0  0  0  0  0
    5.9591   -1.9515   21.7828 H   0  0  0  0  0  0  0  0  0  0  0  0
    7.7263   -0.8886   24.6818 H   0  0  0  0  0  0  0  0  0  0  0  0
    9.8728    3.0646   26.2646 H   0  0  0  0  0  0  0  0  0  0  0  0
    9.4719    3.4742   24.5800 H   0  0  0  0  0  0  0  0  0  0  0  0
  1 24  1  0  0  0  0
  1 28  3  0  0  0  0
  2  3  2  0  0  0  0
  2  4  1  0  0  0  0
  3  5  1  0  0  0  0
  4 11  2  0  0  0  0
  5 12  2  0  0  0  0
  6  7  2  0  0  0  0
  6 13  1  0  0  0  0
  7 16  1  0  0  0  0
  8 14  1  0  0  0  0
  8 16  2  0  0  0  0
  9 11  1  0  0  0  0
  9 29  2  0  0  0  0
 10 15  2  0  0  0  0
 10 29  1  0  0  0  0
 11 12  1  0  0  0  0
 12 15  1  0  0  0  0
 13 14  2  0  0  0  0
 13 18  1  0  0  0  0
 14 25  1  6  0  0  0
 15 30  1  0  0  0  0
 16 39  1  0  0  0  0
 17 25  1  1  0  0  0
 17 30  1  0  0  0  0
 17 32  2  0  0  0  0
 18 31  1  0  0  0  0
 19 20  1  0  0  0  0
 19 24  1  0  0  0  0
 20 24  1  0  0  0  0
 21 22  1  0  0  0  0
 21 25  1  1  0  0  0
 22 30  1  0  0  0  0
 23 25  1  6  0  0  0
 23 27  1  6  0  0  0
 23 31  1  0  0  0  0
 24 26  1  0  0  0  0
 26 38  1  0  0  0  0
 27 35  1  0  0  0  0
 27 36  1  0  0  0  0
 27 37  1  0  0  0  0
 31 38  1  0  0  0  0
 33 38  2  0  0  0  0
 34 38  2  0  0  0  0
  2 40  1  0  0  0  0
  3 41  1  0  0  0  0
  4 42  1  0  0  0  0
  5 43  1  0  0  0  0
  6 44  1  0  0  0  0
  7 45  1  0  0  0  0
  8 46  1  0  0  0  0
  9 47  1  0  0  0  0
 10 48  1  0  0  0  0
 18 49  1  0  0  0  0
 18 50  1  0  0  0  0
 19 51  1  0  0  0  0
 19 52  1  0  0  0  0
 20 53  1  0  0  0  0
 20 54  1  0  0  0  0
 21 55  1  0  0  0  0
 21 56  1  0  0  0  0
 22 57  1  0  0  0  0
 22 58  1  0  0  0  0
 23 59  1  0  0  0  0
 26 60  1  0  0  0  0
 26 61  1  0  0  0  0
M  END
> <scaffold>
tetrahydroisoquinoline-5spiro-isoquinoline

> <compound>
VLA-UNK-61877630-9

> <compound_smiles>
c1ccc2c(c1)cncc2N3CC[C@@]4(C3=O)c5cc(ccc5CN(C4C(F)(F)F)S(=O)(=O)CC6(CC6)C#N)Cl

> <enantiomer_smiles>
c1ccc2c(c1)cncc2N3CC[C@@]4(C3=O)c5cc(ccc5C[N@]([C@H]4C(F)(F)F)S(=O)(=O)CC6(CC6)C#N)Cl

> <clash_score>
0

> <docking_score>
3.4028234663852886e+38

> <overlap_score>
0.9899010062217712

> <MMFF_internal_energy>
237.6232271228729

> <docked_smiles>
c1ccc2c(c1)cncc2N3CC[C@@]4(C3=O)c5cc(ccc5C[N@@]([C@H]4C(F)(F)F)S(=O)(=O)CC6(CC6)C#N)Cl

$$$$
LUO-POS-eaf50f21-2_1
  -OEChem-01042202313D

 61 66  0     1  0  0  0  0  0999 V2000
    8.6677    5.6495   23.5630 C   0  0  0  0  0  0  0  0  0  0  0  0
    3.3444    2.6278   20.4409 C   0  0  0  0  0  0  0  0  0  0  0  0
    3.8974    1.9290   21.5048 C   0  0  0  0  0  0  0  0  0  0  0  0
    3.7877    2.4205   19.1658 C   0  0  0  0  0  0  0  0  0  0  0  0
    4.8986    1.0232   21.2985 C   0  0  0  0  0  0  0  0  0  0  0  0
   12.0781    0.0316   24.1532 C   0  0  0  0  0  0  0  0  0  0  0  0
   12.9147   -0.6032   23.2559 C   0  0  0  0  0  0  0  0  0  0  0  0
   11.0005   -1.4332   22.0435 C   0  0  0  0  0  0  0  0  0  0  0  0
    5.3288    1.2339   17.6062 C   0  0  0  0  0  0  0  0  0  0  0  0
    6.8449   -0.2893   18.3747 C   0  0  0  0  0  0  0  0  0  0  0  0
    4.8238    1.4906   18.9051 C   0  0  0  0  0  0  0  0  0  0  0  0
    5.3995    0.7732   19.9944 C   0  0  0  0  0  0  0  0  0  0  0  0
   10.7056   -0.0626   23.9890 C   0  0  0  0  0  0  0  0  0  0  0  0
   10.1421   -0.7766   22.9242 C   0  0  0  0  0  0  0  0  0  0  0  0
    6.4452   -0.1472   19.6975 C   0  0  0  0  0  0  0  0  0  0  0  0
   12.3697   -1.3298   22.2224 C   0  0  0  0  0  0  0  0  0  0  0  0
    8.2504    0.0168   21.4265 C   0  0  0  0  0  0  0  0  0  0  0  0
    6.9880   -1.9367   21.3575 C   0  0  0  0  0  0  0  0  0  0  0  0
    9.9496    0.5589   24.9527 C   0  0  0  0  0  0  0  0  0  0  0  0
    7.0438    5.7602   25.4882 C   0  0  0  0  0  0  0  0  0  0  0  0
    6.3457    5.0688   24.3546 C   0  0  0  0  0  0  0  0  0  0  0  0
    7.8737   -0.1194   23.8825 C   0  0  0  0  0  0  0  0  0  0  0  0
    7.8447    4.9362   24.5052 C   0  0  0  0  0  0  0  0  0  0  0  0
    8.6253   -0.7606   22.6923 C   0  0  3  0  0  0  0  0  0  0  0  0
    6.0381   -4.1225   21.7993 C   0  0  0  0  0  0  0  0  0  0  0  0
    8.3986    3.6092   24.9736 C   0  0  0  0  0  0  0  0  0  0  0  0
    9.3308    6.2242   22.8040 N   0  0  0  0  0  0  0  0  0  0  0  0
    6.3072    0.3768   17.3417 N   0  0  0  0  0  0  0  0  0  0  0  0
    8.0155   -2.1541   22.4325 N   0  0  0  0  0  0  0  0  0  0  0  0
    7.2305   -0.6898   20.7785 N   0  0  0  0  0  0  0  0  0  0  0  0
    8.6625    1.0133   24.4989 N   0  0  3  0  0  0  0  0  0  0  0  0
    6.0825   -2.8861   21.0708 N   0  3  0  0  0  0  0  0  0  0  0  0
    8.7489    1.0984   21.0877 O   0  0  0  0  0  0  0  0  0  0  0  0
    7.4104    2.4946   22.8269 O   0  0  0  0  0  0  0  0  0  0  0  0
    9.9171    2.7372   23.0342 O   0  0  0  0  0  0  0  0  0  0  0  0
    8.6196    2.4824   23.6210 S   0  0  0  0  0  0  0  0  0  0  0  0
   13.4283   -2.1423   21.1085 Cl  0  0  0  0  0  0  0  0  0  0  0  0
    2.5446    3.3512   20.6368 H   0  0  0  0  0  0  0  0  0  0  0  0
    3.5197    2.1139   22.5168 H   0  0  0  0  0  0  0  0  0  0  0  0
    3.3421    2.9744   18.3362 H   0  0  0  0  0  0  0  0  0  0  0  0
    5.3160    0.4868   22.1541 H   0  0  0  0  0  0  0  0  0  0  0  0
   12.5031    0.5937   24.9774 H   0  0  0  0  0  0  0  0  0  0  0  0
   13.9925   -0.5212   23.3801 H   0  0  0  0  0  0  0  0  0  0  0  0
   10.6043   -2.0222   21.2270 H   0  0  0  0  0  0  0  0  0  0  0  0
    4.9145    1.7511   16.7473 H   0  0  0  0  0  0  0  0  0  0  0  0
    7.6462   -0.9771   18.1096 H   0  0  0  0  0  0  0  0  0  0  0  0
    9.7617   -0.1285   25.8178 H   0  0  0  0  0  0  0  0  0  0  0  0
   10.4958    1.4389   25.3822 H   0  0  0  0  0  0  0  0  0  0  0  0
    7.1156    6.8413   25.4490 H   0  0  0  0  0  0  0  0  0  0  0  0
    6.8892    5.3693   26.4873 H   0  0  0  0  0  0  0  0  0  0  0  0
    5.7226    4.2150   24.5946 H   0  0  0  0  0  0  0  0  0  0  0  0
    5.9497    5.6876   23.5574 H   0  0  0  0  0  0  0  0  0  0  0  0
    6.8928    0.2689   23.5591 H   0  0  0  0  0  0  0  0  0  0  0  0
    7.6755   -0.8816   24.6542 H   0  0  0  0  0  0  0  0  0  0  0  0
    6.6924   -4.8367   21.2964 H   0  0  0  0  0  0  0  0  0  0  0  0
    5.0066   -4.4793   21.8032 H   0  0  0  0  0  0  0  0  0  0  0  0
    6.3838   -3.9315   22.8167 H   0  0  0  0  0  0  0  0  0  0  0  0
    7.7192    3.1304   25.6843 H   0  0  0  0  0  0  0  0  0  0  0  0
    9.3749    3.7383   25.4486 H   0  0  0  0  0  0  0  0  0  0  0  0
    8.2335   -2.9943   22.7995 H   0  0  0  0  0  0  0  0  0  0  0  0
    5.4805   -2.6356   20.3216 H   0  0  0  0  0  0  0  0  0  0  0  0
  1 23  1  0  0  0  0
  1 27  3  0  0  0  0
  2  3  2  0  0  0  0
  2  4  1  0  0  0  0
  3  5  1  0  0  0  0
  4 11  2  0  0  0  0
  5 12  2  0  0  0  0
  6  7  2  0  0  0  0
  6 13  1  0  0  0  0
  7 16  1  0  0  0  0
  8 14  1  0  0  0  0
  8 16  2  0  0  0  0
  9 11  1  0  0  0  0
  9 28  2  0  0  0  0
 10 15  2  0  0  0  0
 10 28  1  0  0  0  0
 11 12  1  0  0  0  0
 12 15  1  0  0  0  0
 13 14  2  0  0  0  0
 13 19  1  0  0  0  0
 14 24  1  0  0  0  0
 15 30  1  0  0  0  0
 16 37  1  0  0  0  0
 17 24  1  0  0  0  0
 17 30  1  0  0  0  0
 17 33  2  0  0  0  0
 18 29  1  0  0  0  0
 18 30  1  0  0  0  0
 18 32  2  0  0  0  0
 19 31  1  0  0  0  0
 20 21  1  0  0  0  0
 20 23  1  0  0  0  0
 21 23  1  0  0  0  0
 22 24  1  0  0  0  0
 22 31  1  0  0  0  0
 23 26  1  0  0  0  0
 24 29  1  0  0  0  0
 25 32  1  0  0  0  0
 26 36  1  0  0  0  0
 31 36  1  0  0  0  0
 34 36  2  0  0  0  0
 35 36  2  0  0  0  0
  2 38  1  0  0  0  0
  3 39  1  0  0  0  0
  4 40  1  0  0  0  0
  5 41  1  0  0  0  0
  6 42  1  0  0  0  0
  7 43  1  0  0  0  0
  8 44  1  0  0  0  0
  9 45  1  0  0  0  0
 10 46  1  0  0  0  0
 19 47  1  0  0  0  0
 19 48  1  0  0  0  0
 20 49  1  0  0  0  0
 20 50  1  0  0  0  0
 21 51  1  0  0  0  0
 21 52  1  0  0  0  0
 22 53  1  0  0  0  0
 22 54  1  0  0  0  0
 25 55  1  0  0  0  0
 25 56  1  0  0  0  0
 25 57  1  0  0  0  0
 26 58  1  0  0  0  0
 26 59  1  0  0  0  0
 29 60  1  0  0  0  0
 32 61  1  0  0  0  0
M  CHG  1  32   1
M  END
> <scaffold>
tetrahydroisoquinoline-5spiro-isoquinoline

> <compound>
LUO-POS-eaf50f21-2

> <compound_smiles>
CNC1=NC2(CN(Cc3c2cc(cc3)Cl)S(=O)(=O)CC4(CC4)C#N)C(=O)N1c5cncc6c5cccc6

> <enantiomer_smiles>
CNC1=N[C@@]2(C[N@@](Cc3c2cc(cc3)Cl)S(=O)(=O)CC4(CC4)C#N)C(=O)N1c5cncc6c5cccc6

> <clash_score>
0

> <docking_score>
3.4028234663852886e+38

> <overlap_score>
1.0

> <MMFF_internal_energy>
28.932956991735214

> <docked_smiles>
C/[NH+]=C/1\N[C@@]2(C[N@@](Cc3c2cc(cc3)Cl)S(=O)(=O)CC4(CC4)C#N)C(=O)N1c5cncc6c5cccc6

$$$$
LUO-POS-b5068a05-2_1
  -OEChem-01042202313D

 58 63  0     1  0  0  0  0  0999 V2000
    8.6716    5.6493   23.5169 C   0  0  0  0  0  0  0  0  0  0  0  0
    6.1624   -4.1048   21.8087 C   0  0  0  0  0  0  0  0  0  0  0  0
    3.3444    2.6278   20.4409 C   0  0  0  0  0  0  0  0  0  0  0  0
    3.8974    1.9290   21.5048 C   0  0  0  0  0  0  0  0  0  0  0  0
    3.7877    2.4205   19.1658 C   0  0  0  0  0  0  0  0  0  0  0  0
    4.8986    1.0232   21.2985 C   0  0  0  0  0  0  0  0  0  0  0  0
   12.0781    0.0316   24.1532 C   0  0  0  0  0  0  0  0  0  0  0  0
   12.9147   -0.6032   23.2559 C   0  0  0  0  0  0  0  0  0  0  0  0
   11.0005   -1.4332   22.0435 C   0  0  0  0  0  0  0  0  0  0  0  0
    5.3288    1.2339   17.6062 C   0  0  0  0  0  0  0  0  0  0  0  0
    6.8449   -0.2893   18.3747 C   0  0  0  0  0  0  0  0  0  0  0  0
    4.8238    1.4906   18.9051 C   0  0  0  0  0  0  0  0  0  0  0  0
    5.3995    0.7732   19.9944 C   0  0  0  0  0  0  0  0  0  0  0  0
   10.7056   -0.0626   23.9890 C   0  0  0  0  0  0  0  0  0  0  0  0
   10.1421   -0.7766   22.9242 C   0  0  0  0  0  0  0  0  0  0  0  0
    6.4452   -0.1472   19.6975 C   0  0  0  0  0  0  0  0  0  0  0  0
   12.3697   -1.3298   22.2224 C   0  0  0  0  0  0  0  0  0  0  0  0
    8.2504    0.0168   21.4265 C   0  0  0  0  0  0  0  0  0  0  0  0
    6.9880   -1.9367   21.3575 C   0  0  0  0  0  0  0  0  0  0  0  0
    9.9496    0.5589   24.9527 C   0  0  0  0  0  0  0  0  0  0  0  0
    7.0441    5.7913   25.4370 C   0  0  0  0  0  0  0  0  0  0  0  0
    6.3474    5.0834   24.3126 C   0  0  0  0  0  0  0  0  0  0  0  0
    7.8737   -0.1194   23.8825 C   0  0  0  0  0  0  0  0  0  0  0  0
    7.8459    4.9514   24.4682 C   0  0  0  0  0  0  0  0  0  0  0  0
    8.6253   -0.7606   22.6923 C   0  0  3  0  0  0  0  0  0  0  0  0
    8.3973    3.6311   24.9580 C   0  0  0  0  0  0  0  0  0  0  0  0
    9.3368    6.2115   22.7504 N   0  0  0  0  0  0  0  0  0  0  0  0
    6.1581   -5.1194   22.3716 N   0  0  0  0  0  0  0  0  0  0  0  0
    6.3072    0.3768   17.3417 N   0  0  0  0  0  0  0  0  0  0  0  0
    8.0155   -2.1541   22.4325 N   0  0  0  0  0  0  0  0  0  0  0  0
    7.2305   -0.6898   20.7785 N   0  0  0  0  0  0  0  0  0  0  0  0
    8.6625    1.0133   24.4989 N   0  0  3  0  0  0  0  0  0  0  0  0
    6.1205   -2.8900   21.0880 N   0  0  0  0  0  0  0  0  0  0  0  0
    8.7526    1.0920   21.1149 O   0  0  0  0  0  0  0  0  0  0  0  0
    7.4162    2.4936   22.8200 O   0  0  0  0  0  0  0  0  0  0  0  0
    9.9231    2.7204   23.0422 O   0  0  0  0  0  0  0  0  0  0  0  0
    8.6195    2.4835   23.6231 S   0  0  0  0  0  0  0  0  0  0  0  0
   13.4280   -2.1429   21.1087 Cl  0  0  0  0  0  0  0  0  0  0  0  0
    2.5443    3.3508   20.6368 H   0  0  0  0  0  0  0  0  0  0  0  0
    3.5189    2.1137   22.5166 H   0  0  0  0  0  0  0  0  0  0  0  0
    3.3421    2.9744   18.3363 H   0  0  0  0  0  0  0  0  0  0  0  0
    5.3131    0.4893   22.1569 H   0  0  0  0  0  0  0  0  0  0  0  0
   12.5034    0.5933   24.9774 H   0  0  0  0  0  0  0  0  0  0  0  0
   13.9924   -0.5213   23.3809 H   0  0  0  0  0  0  0  0  0  0  0  0
   10.6045   -2.0218   21.2266 H   0  0  0  0  0  0  0  0  0  0  0  0
    4.9151    1.7511   16.7471 H   0  0  0  0  0  0  0  0  0  0  0  0
    7.6455   -0.9765   18.1038 H   0  0  0  0  0  0  0  0  0  0  0  0
    9.7606   -0.1290   25.8169 H   0  0  0  0  0  0  0  0  0  0  0  0
   10.4950    1.4388   25.3833 H   0  0  0  0  0  0  0  0  0  0  0  0
    7.1173    6.8716   25.3814 H   0  0  0  0  0  0  0  0  0  0  0  0
    6.8870    5.4159   26.4415 H   0  0  0  0  0  0  0  0  0  0  0  0
    5.7227    4.2341   24.5644 H   0  0  0  0  0  0  0  0  0  0  0  0
    5.9537    5.6905   23.5053 H   0  0  0  0  0  0  0  0  0  0  0  0
    6.8912    0.2728   23.5654 H   0  0  0  0  0  0  0  0  0  0  0  0
    7.6756   -0.8770   24.6600 H   0  0  0  0  0  0  0  0  0  0  0  0
    7.7159    3.1640   25.6745 H   0  0  0  0  0  0  0  0  0  0  0  0
    9.3728    3.7663   25.4328 H   0  0  0  0  0  0  0  0  0  0  0  0
    5.4937   -2.6686   20.3633 H   0  0  0  0  0  0  0  0  0  0  0  0
  1 24  1  0  0  0  0
  1 27  3  0  0  0  0
  2 28  3  0  0  0  0
  2 33  1  0  0  0  0
  3  4  2  0  0  0  0
  3  5  1  0  0  0  0
  4  6  1  0  0  0  0
  5 12  2  0  0  0  0
  6 13  2  0  0  0  0
  7  8  2  0  0  0  0
  7 14  1  0  0  0  0
  8 17  1  0  0  0  0
  9 15  1  0  0  0  0
  9 17  2  0  0  0  0
 10 12  1  0  0  0  0
 10 29  2  0  0  0  0
 11 16  2  0  0  0  0
 11 29  1  0  0  0  0
 12 13  1  0  0  0  0
 13 16  1  0  0  0  0
 14 15  2  0  0  0  0
 14 20  1  0  0  0  0
 15 25  1  0  0  0  0
 16 31  1  0  0  0  0
 17 38  1  0  0  0  0
 18 25  1  0  0  0  0
 18 31  1  0  0  0  0
 18 34  2  0  0  0  0
 19 30  2  0  0  0  0
 19 31  1  0  0  0  0
 19 33  1  0  0  0  0
 20 32  1  0  0  0  0
 21 22  1  0  0  0  0
 21 24  1  0  0  0  0
 22 24  1  0  0  0  0
 23 25  1  0  0  0  0
 23 32  1  0  0  0  0
 24 26  1  0  0  0  0
 25 30  1  0  0  0  0
 26 37  1  0  0  0  0
 32 37  1  0  0  0  0
 35 37  2  0  0  0  0
 36 37  2  0  0  0  0
  3 39  1  0  0  0  0
  4 40  1  0  0  0  0
  5 41  1  0  0  0  0
  6 42  1  0  0  0  0
  7 43  1  0  0  0  0
  8 44  1  0  0  0  0
  9 45  1  0  0  0  0
 10 46  1  0  0  0  0
 11 47  1  0  0  0  0
 20 48  1  0  0  0  0
 20 49  1  0  0  0  0
 21 50  1  0  0  0  0
 21 51  1  0  0  0  0
 22 52  1  0  0  0  0
 22 53  1  0  0  0  0
 23 54  1  0  0  0  0
 23 55  1  0  0  0  0
 26 56  1  0  0  0  0
 26 57  1  0  0  0  0
 33 58  1  0  0  0  0
M  END
> <scaffold>
tetrahydroisoquinoline-5spiro-isoquinoline

> <compound>
LUO-POS-b5068a05-2

> <compound_smiles>
c1ccc2c(c1)cncc2N3C(=O)C4(CN(Cc5c4cc(cc5)Cl)S(=O)(=O)CC6(CC6)C#N)N=C3NC#N

> <enantiomer_smiles>
c1ccc2c(c1)cncc2N3C(=O)[C@]4(C[N@@](Cc5c4cc(cc5)Cl)S(=O)(=O)CC6(CC6)C#N)N=C3NC#N

> <clash_score>
0.8651329869519497

> <docking_score>
3.4028234663852886e+38

> <overlap_score>
1.0

> <MMFF_internal_energy>
85.13423731152008

> <docked_smiles>
c1ccc2c(c1)cncc2N3C(=O)[C@]4(C[N@@](Cc5c4cc(cc5)Cl)S(=O)(=O)CC6(CC6)C#N)N=C3NC#N

$$$$
EDJ-MED-9f4ac58c-4_1
  -OEChem-01042202313D

 63 68  0     1  0  0  0  0  0999 V2000
    5.1577    3.4061   26.1564 C   0  0  0  0  0  0  0  0  0  0  0  0
    4.8986    1.0232   21.2985 C   0  0  0  0  0  0  0  0  0  0  0  0
   12.0781    0.0316   24.1532 C   0  0  0  0  0  0  0  0  0  0  0  0
    3.8974    1.9290   21.5048 C   0  0  0  0  0  0  0  0  0  0  0  0
   12.9147   -0.6032   23.2559 C   0  0  0  0  0  0  0  0  0  0  0  0
    3.7877    2.4205   19.1658 C   0  0  0  0  0  0  0  0  0  0  0  0
   11.0005   -1.4332   22.0435 C   0  0  0  0  0  0  0  0  0  0  0  0
    5.3288    1.2339   17.6062 C   0  0  0  0  0  0  0  0  0  0  0  0
    6.8449   -0.2893   18.3747 C   0  0  0  0  0  0  0  0  0  0  0  0
    5.3995    0.7732   19.9944 C   0  0  0  0  0  0  0  0  0  0  0  0
    4.8238    1.4906   18.9051 C   0  0  0  0  0  0  0  0  0  0  0  0
   10.7056   -0.0626   23.9890 C   0  0  0  0  0  0  0  0  0  0  0  0
   10.1421   -0.7766   22.9242 C   0  0  0  0  0  0  0  0  0  0  0  0
    6.4452   -0.1472   19.6975 C   0  0  0  0  0  0  0  0  0  0  0  0
    3.3444    2.6278   20.4409 C   0  0  0  0  0  0  0  0  0  0  0  0
   12.3697   -1.3298   22.2224 C   0  0  0  0  0  0  0  0  0  0  0  0
    9.9496    0.5589   24.9527 C   0  0  0  0  0  0  0  0  0  0  0  0
    8.2504    0.0168   21.4265 C   0  0  0  0  0  0  0  0  0  0  0  0
    6.7897    3.6529   28.0620 C   0  0  0  0  0  0  0  0  0  0  0  0
    5.7925    2.6056   28.4611 C   0  0  0  0  0  0  0  0  0  0  0  0
    8.0155   -2.1541   22.4325 C   0  0  0  0  0  0  0  0  0  0  0  0
    6.9880   -1.9367   21.3575 C   0  0  0  0  0  0  0  0  0  0  0  0
    7.8737   -0.1194   23.8825 C   0  0  0  0  0  0  0  0  0  0  0  0
    6.1458    2.7877   27.0020 C   0  0  0  0  0  0  0  0  0  0  0  0
    8.6253   -0.7606   22.6923 C   0  0  3  0  0  0  0  0  0  0  0  0
    2.9201    5.3201   21.0329 C   0  0  0  0  0  0  0  0  0  0  0  0
    6.9941    1.7268   26.3371 C   0  0  0  0  0  0  0  0  0  0  0  0
    4.3615    3.9042   25.4751 N   0  0  0  0  0  0  0  0  0  0  0  0
    6.3072    0.3768   17.3417 N   0  0  0  0  0  0  0  0  0  0  0  0
    7.2305   -0.6898   20.7785 N   0  0  0  0  0  0  0  0  0  0  0  0
    8.6625    1.0133   24.4989 N   0  0  0  0  0  0  0  0  0  0  0  0
   10.3166    0.7434   26.1217 O   0  0  0  0  0  0  0  0  0  0  0  0
    8.8196    1.0408   21.0766 O   0  0  0  0  0  0  0  0  0  0  0  0
    1.2852    3.9292   19.5272 O   0  0  0  0  0  0  0  0  0  0  0  0
    1.3934    3.4398   21.9959 O   0  0  0  0  0  0  0  0  0  0  0  0
    6.9311    2.7494   23.9334 O   0  0  0  0  0  0  0  0  0  0  0  0
    8.8702    3.3156   25.4517 O   0  0  0  0  0  0  0  0  0  0  0  0
    2.0628    3.7877   20.7500 S   0  0  0  0  0  0  0  0  0  0  0  0
    7.8873    2.3819   24.9522 S   0  0  0  0  0  0  0  0  0  0  0  0
   13.4293   -2.1466   21.1128 Cl  0  0  0  0  0  0  0  0  0  0  0  0
    5.3127    0.4890   22.1568 H   0  0  0  0  0  0  0  0  0  0  0  0
   12.5191    0.5957   24.9706 H   0  0  0  0  0  0  0  0  0  0  0  0
    3.5274    2.1069   22.5215 H   0  0  0  0  0  0  0  0  0  0  0  0
   13.9921   -0.5215   23.3809 H   0  0  0  0  0  0  0  0  0  0  0  0
    3.3498    2.9707   18.3288 H   0  0  0  0  0  0  0  0  0  0  0  0
   10.6170   -2.0260   21.2272 H   0  0  0  0  0  0  0  0  0  0  0  0
    4.9155    1.7517   16.7470 H   0  0  0  0  0  0  0  0  0  0  0  0
    7.6461   -0.9756   18.1037 H   0  0  0  0  0  0  0  0  0  0  0  0
    6.4888    4.6911   28.1472 H   0  0  0  0  0  0  0  0  0  0  0  0
    7.8297    3.4783   28.3124 H   0  0  0  0  0  0  0  0  0  0  0  0
    6.1646    1.7296   28.9798 H   0  0  0  0  0  0  0  0  0  0  0  0
    4.8247    2.9433   28.8143 H   0  0  0  0  0  0  0  0  0  0  0  0
    7.5124   -2.5282   23.3379 H   0  0  0  0  0  0  0  0  0  0  0  0
    8.7585   -2.9105   22.1421 H   0  0  0  0  0  0  0  0  0  0  0  0
    7.0610   -2.7257   20.5719 H   0  0  0  0  0  0  0  0  0  0  0  0
    5.9524   -1.9968   21.7699 H   0  0  0  0  0  0  0  0  0  0  0  0
    6.8990    0.2933   23.5632 H   0  0  0  0  0  0  0  0  0  0  0  0
    7.6456   -0.8834   24.6465 H   0  0  0  0  0  0  0  0  0  0  0  0
    2.1802    6.0974   21.2302 H   0  0  0  0  0  0  0  0  0  0  0  0
    3.5792    5.1923   21.8929 H   0  0  0  0  0  0  0  0  0  0  0  0
    3.4987    5.5609   20.1398 H   0  0  0  0  0  0  0  0  0  0  0  0
    6.3739    0.9078   25.9624 H   0  0  0  0  0  0  0  0  0  0  0  0
    7.7323    1.3219   27.0346 H   0  0  0  0  0  0  0  0  0  0  0  0
  1 24  1  0  0  0  0
  1 28  3  0  0  0  0
  2  4  2  0  0  0  0
  2 10  1  0  0  0  0
  3  5  2  0  0  0  0
  3 12  1  0  0  0  0
  4 15  1  0  0  0  0
  5 16  1  0  0  0  0
  6 11  1  0  0  0  0
  6 15  2  0  0  0  0
  7 13  1  0  0  0  0
  7 16  2  0  0  0  0
  8 11  2  0  0  0  0
  8 29  1  0  0  0  0
  9 14  1  0  0  0  0
  9 29  2  0  0  0  0
 10 11  1  0  0  0  0
 10 14  2  0  0  0  0
 12 13  2  0  0  0  0
 12 17  1  0  0  0  0
 13 25  1  0  0  0  0
 14 30  1  0  0  0  0
 15 38  1  0  0  0  0
 16 40  1  0  0  0  0
 17 31  1  0  0  0  0
 17 32  2  0  0  0  0
 18 25  1  0  0  0  0
 18 30  1  0  0  0  0
 18 33  2  0  0  0  0
 19 20  1  0  0  0  0
 19 24  1  0  0  0  0
 20 24  1  0  0  0  0
 21 22  1  0  0  0  0
 21 25  1  0  0  0  0
 22 30  1  0  0  0  0
 23 25  1  0  0  0  0
 23 31  1  0  0  0  0
 24 27  1  0  0  0  0
 26 38  1  0  0  0  0
 27 39  1  0  0  0  0
 31 39  1  0  0  0  0
 34 38  2  0  0  0  0
 35 38  2  0  0  0  0
 36 39  2  0  0  0  0
 37 39  2  0  0  0  0
  2 41  1  0  0  0  0
  3 42  1  0  0  0  0
  4 43  1  0  0  0  0
  5 44  1  0  0  0  0
  6 45  1  0  0  0  0
  7 46  1  0  0  0  0
  8 47  1  0  0  0  0
  9 48  1  0  0  0  0
 19 49  1  0  0  0  0
 19 50  1  0  0  0  0
 20 51  1  0  0  0  0
 20 52  1  0  0  0  0
 21 53  1  0  0  0  0
 21 54  1  0  0  0  0
 22 55  1  0  0  0  0
 22 56  1  0  0  0  0
 23 57  1  0  0  0  0
 23 58  1  0  0  0  0
 26 59  1  0  0  0  0
 26 60  1  0  0  0  0
 26 61  1  0  0  0  0
 27 62  1  0  0  0  0
 27 63  1  0  0  0  0
M  END
> <scaffold>
tetrahydroisoquinoline-5spiro-isoquinoline

> <compound>
EDJ-MED-9f4ac58c-4

> <compound_smiles>
CS(=O)(=O)c1ccc2c(c1)cncc2N3CCC4(C3=O)CN(C(=O)c5c4cc(cc5)Cl)S(=O)(=O)CC6(CC6)C#N

> <enantiomer_smiles>
CS(=O)(=O)c1ccc2c(c1)cncc2N3CC[C@@]4(C3=O)CN(C(=O)c5c4cc(cc5)Cl)S(=O)(=O)CC6(CC6)C#N

> <clash_score>
0.6364084434209274

> <docking_score>
3.4028234663852886e+38

> <overlap_score>
0.9852196574211121

> <MMFF_internal_energy>
113.18414721522701

> <docked_smiles>
CS(=O)(=O)c1ccc2c(c1)cncc2N3CC[C@@]4(C3=O)CN(C(=O)c5c4cc(cc5)Cl)S(=O)(=O)CC6(CC6)C#N

$$$$
MAT-POS-50a80394-3_1
  -OEChem-01042202313D

 67 72  0     1  0  0  0  0  0999 V2000
    8.6992    5.6477   23.5664 C   0  0  0  0  0  0  0  0  0  0  0  0
    3.3444    2.6278   20.4409 C   0  0  0  0  0  0  0  0  0  0  0  0
    3.8974    1.9290   21.5048 C   0  0  0  0  0  0  0  0  0  0  0  0
    3.7877    2.4205   19.1658 C   0  0  0  0  0  0  0  0  0  0  0  0
    4.8986    1.0232   21.2985 C   0  0  0  0  0  0  0  0  0  0  0  0
   12.0781    0.0316   24.1532 C   0  0  0  0  0  0  0  0  0  0  0  0
   12.9147   -0.6032   23.2559 C   0  0  0  0  0  0  0  0  0  0  0  0
   11.0005   -1.4332   22.0435 C   0  0  0  0  0  0  0  0  0  0  0  0
    5.3288    1.2339   17.6062 C   0  0  0  0  0  0  0  0  0  0  0  0
    6.8449   -0.2893   18.3747 C   0  0  0  0  0  0  0  0  0  0  0  0
    4.8238    1.4906   18.9051 C   0  0  0  0  0  0  0  0  0  0  0  0
    5.3995    0.7732   19.9944 C   0  0  0  0  0  0  0  0  0  0  0  0
   10.7056   -0.0626   23.9890 C   0  0  0  0  0  0  0  0  0  0  0  0
   10.1421   -0.7766   22.9242 C   0  0  0  0  0  0  0  0  0  0  0  0
    6.4452   -0.1472   19.6975 C   0  0  0  0  0  0  0  0  0  0  0  0
   12.3697   -1.3298   22.2224 C   0  0  0  0  0  0  0  0  0  0  0  0
    8.2504    0.0168   21.4265 C   0  0  0  0  0  0  0  0  0  0  0  0
    9.9496    0.5589   24.9527 C   0  0  0  0  0  0  0  0  0  0  0  0
    7.0770    5.7596   25.4930 C   0  0  0  0  0  0  0  0  0  0  0  0
    6.3739    5.0781   24.3564 C   0  0  0  0  0  0  0  0  0  0  0  0
    6.9880   -1.9367   21.3575 C   0  0  0  0  0  0  0  0  0  0  0  0
    7.8737   -0.1194   23.8825 C   0  0  0  0  0  0  0  0  0  0  0  0
    8.0155   -2.1541   22.4325 C   0  0  2  0  0  0  0  0  0  0  0  0
    7.8721    4.9352   24.5056 C   0  0  0  0  0  0  0  0  0  0  0  0
    8.6253   -0.7606   22.6923 C   0  0  3  0  0  0  0  0  0  0  0  0
    9.7206   -3.7689   23.3330 C   0  0  0  0  0  0  0  0  0  0  0  0
    8.2939   -4.4352   21.3775 C   0  0  0  0  0  0  0  0  0  0  0  0
    8.4177    3.6024   24.9674 C   0  0  0  0  0  0  0  0  0  0  0  0
    9.0028   -3.2761   22.0770 C   0  0  0  0  0  0  0  0  0  0  0  0
    9.3655    6.2218   22.8098 N   0  0  0  0  0  0  0  0  0  0  0  0
    6.3072    0.3768   17.3417 N   0  0  0  0  0  0  0  0  0  0  0  0
    7.2305   -0.6898   20.7785 N   0  0  0  0  0  0  0  0  0  0  0  0
    8.6625    1.0133   24.4989 N   0  0  3  0  0  0  0  0  0  0  0  0
    8.8271    1.0415   21.0742 O   0  0  0  0  0  0  0  0  0  0  0  0
    7.4292    2.5199   22.8045 O   0  0  0  0  0  0  0  0  0  0  0  0
    9.9378    2.7165   23.0356 O   0  0  0  0  0  0  0  0  0  0  0  0
    8.6308    2.4807   23.6092 S   0  0  0  0  0  0  0  0  0  0  0  0
   13.4302   -2.1472   21.1145 Cl  0  0  0  0  0  0  0  0  0  0  0  0
    2.5443    3.3508   20.6368 H   0  0  0  0  0  0  0  0  0  0  0  0
    3.5189    2.1137   22.5166 H   0  0  0  0  0  0  0  0  0  0  0  0
    3.3421    2.9744   18.3363 H   0  0  0  0  0  0  0  0  0  0  0  0
    5.3131    0.4893   22.1569 H   0  0  0  0  0  0  0  0  0  0  0  0
   12.5053    0.5853   24.9811 H   0  0  0  0  0  0  0  0  0  0  0  0
   13.9931   -0.5298   23.3872 H   0  0  0  0  0  0  0  0  0  0  0  0
   10.6216   -2.0358   21.2352 H   0  0  0  0  0  0  0  0  0  0  0  0
    4.9151    1.7511   16.7471 H   0  0  0  0  0  0  0  0  0  0  0  0
    7.6455   -0.9765   18.1038 H   0  0  0  0  0  0  0  0  0  0  0  0
    9.7586   -0.1301   25.8186 H   0  0  0  0  0  0  0  0  0  0  0  0
   10.4962    1.4374   25.3905 H   0  0  0  0  0  0  0  0  0  0  0  0
    7.1557    6.8404   25.4589 H   0  0  0  0  0  0  0  0  0  0  0  0
    6.9203    5.3649   26.4902 H   0  0  0  0  0  0  0  0  0  0  0  0
    5.7454    4.2271   24.5926 H   0  0  0  0  0  0  0  0  0  0  0  0
    5.9815    5.7032   23.5624 H   0  0  0  0  0  0  0  0  0  0  0  0
    7.0351   -2.7227   20.5618 H   0  0  0  0  0  0  0  0  0  0  0  0
    5.9499   -1.9852   21.7747 H   0  0  0  0  0  0  0  0  0  0  0  0
    6.8977    0.2982   23.5772 H   0  0  0  0  0  0  0  0  0  0  0  0
    7.6703   -0.8628   24.6730 H   0  0  0  0  0  0  0  0  0  0  0  0
    7.4678   -2.5172   23.3209 H   0  0  0  0  0  0  0  0  0  0  0  0
    9.0127   -4.1867   24.0573 H   0  0  0  0  0  0  0  0  0  0  0  0
   10.2579   -2.9481   23.8196 H   0  0  0  0  0  0  0  0  0  0  0  0
   10.4507   -4.5469   23.0859 H   0  0  0  0  0  0  0  0  0  0  0  0
    7.5281   -4.8801   22.0221 H   0  0  0  0  0  0  0  0  0  0  0  0
    9.0059   -5.2215   21.1051 H   0  0  0  0  0  0  0  0  0  0  0  0
    7.8058   -4.0931   20.4587 H   0  0  0  0  0  0  0  0  0  0  0  0
    7.7356    3.1246   25.6761 H   0  0  0  0  0  0  0  0  0  0  0  0
    9.3950    3.7230   25.4425 H   0  0  0  0  0  0  0  0  0  0  0  0
    9.7559   -2.8697   21.3891 H   0  0  0  0  0  0  0  0  0  0  0  0
  1 24  1  0  0  0  0
  1 30  3  0  0  0  0
  2  3  2  0  0  0  0
  2  4  1  0  0  0  0
  3  5  1  0  0  0  0
  4 11  2  0  0  0  0
  5 12  2  0  0  0  0
  6  7  2  0  0  0  0
  6 13  1  0  0  0  0
  7 16  1  0  0  0  0
  8 14  1  0  0  0  0
  8 16  2  0  0  0  0
  9 11  1  0  0  0  0
  9 31  2  0  0  0  0
 10 15  2  0  0  0  0
 10 31  1  0  0  0  0
 11 12  1  0  0  0  0
 12 15  1  0  0  0  0
 13 14  2  0  0  0  0
 13 18  1  0  0  0  0
 14 25  1  0  0  0  0
 15 32  1  0  0  0  0
 16 38  1  0  0  0  0
 17 25  1  0  0  0  0
 17 32  1  0  0  0  0
 17 34  2  0  0  0  0
 18 33  1  0  0  0  0
 19 20  1  0  0  0  0
 19 24  1  0  0  0  0
 20 24  1  0  0  0  0
 21 23  1  0  0  0  0
 21 32  1  0  0  0  0
 22 25  1  0  0  0  0
 22 33  1  0  0  0  0
 23 25  1  0  0  0  0
 23 29  1  1  0  0  0
 24 28  1  0  0  0  0
 26 29  1  0  0  0  0
 27 29  1  0  0  0  0
 28 37  1  0  0  0  0
 33 37  1  0  0  0  0
 35 37  2  0  0  0  0
 36 37  2  0  0  0  0
  2 39  1  0  0  0  0
  3 40  1  0  0  0  0
  4 41  1  0  0  0  0
  5 42  1  0  0  0  0
  6 43  1  0  0  0  0
  7 44  1  0  0  0  0
  8 45  1  0  0  0  0
  9 46  1  0  0  0  0
 10 47  1  0  0  0  0
 18 48  1  0  0  0  0
 18 49  1  0  0  0  0
 19 50  1  0  0  0  0
 19 51  1  0  0  0  0
 20 52  1  0  0  0  0
 20 53  1  0  0  0  0
 21 54  1  0  0  0  0
 21 55  1  0  0  0  0
 22 56  1  0  0  0  0
 22 57  1  0  0  0  0
 23 58  1  0  0  0  0
 26 59  1  0  0  0  0
 26 60  1  0  0  0  0
 26 61  1  0  0  0  0
 27 62  1  0  0  0  0
 27 63  1  0  0  0  0
 27 64  1  0  0  0  0
 28 65  1  0  0  0  0
 28 66  1  0  0  0  0
 29 67  1  0  0  0  0
M  END
> <scaffold>
tetrahydroisoquinoline-5spiro-isoquinoline

> <compound>
MAT-POS-50a80394-3

> <compound_smiles>
CC(C)C1CN(C(=O)C12CN(Cc3c2cc(cc3)Cl)S(=O)(=O)CC4(CC4)C#N)c5cncc6c5cccc6

> <enantiomer_smiles>
CC(C)[C@@H]1CN(C(=O)[C@]12C[N@@](Cc3c2cc(cc3)Cl)S(=O)(=O)CC4(CC4)C#N)c5cncc6c5cccc6

> <clash_score>
0.6915141166309803

> <docking_score>
3.4028234663852886e+38

> <overlap_score>
0.9833952188491821

> <MMFF_internal_energy>
212.0482206305938

> <docked_smiles>
CC(C)[C@@H]1CN(C(=O)[C@]12C[N@@](Cc3c2cc(cc3)Cl)S(=O)(=O)CC4(CC4)C#N)c5cncc6c5cccc6

$$$$
EDJ-MED-b6c6ee2b-1_1
  -OEChem-01042202313D

 71 75  0     1  0  0  0  0  0999 V2000
    3.7877    2.4205   19.1658 C   0  0  0  0  0  0  0  0  0  0  0  0
   12.0781    0.0316   24.1532 C   0  0  0  0  0  0  0  0  0  0  0  0
    3.3444    2.6278   20.4409 C   0  0  0  0  0  0  0  0  0  0  0  0
   12.9147   -0.6032   23.2559 C   0  0  0  0  0  0  0  0  0  0  0  0
    4.8986    1.0232   21.2985 C   0  0  0  0  0  0  0  0  0  0  0  0
   11.0005   -1.4332   22.0435 C   0  0  0  0  0  0  0  0  0  0  0  0
    5.3288    1.2339   17.6062 C   0  0  0  0  0  0  0  0  0  0  0  0
    6.8449   -0.2893   18.3747 C   0  0  0  0  0  0  0  0  0  0  0  0
    4.8238    1.4906   18.9051 C   0  0  0  0  0  0  0  0  0  0  0  0
    5.3995    0.7732   19.9944 C   0  0  0  0  0  0  0  0  0  0  0  0
   10.7056   -0.0626   23.9890 C   0  0  0  0  0  0  0  0  0  0  0  0
   10.1421   -0.7766   22.9242 C   0  0  0  0  0  0  0  0  0  0  0  0
    6.4452   -0.1472   19.6975 C   0  0  0  0  0  0  0  0  0  0  0  0
    3.8974    1.9290   21.5048 C   0  0  0  0  0  0  0  0  0  0  0  0
   12.3697   -1.3298   22.2224 C   0  0  0  0  0  0  0  0  0  0  0  0
    8.2504    0.0168   21.4265 C   0  0  0  0  0  0  0  0  0  0  0  0
    6.7850    2.6041   25.0047 C   0  0  0  0  0  0  0  0  0  0  0  0
    9.9496    0.5589   24.9527 C   0  0  0  0  0  0  0  0  0  0  0  0
    8.0155   -2.1541   22.4325 C   0  0  0  0  0  0  0  0  0  0  0  0
    6.9880   -1.9367   21.3575 C   0  0  0  0  0  0  0  0  0  0  0  0
    7.8737   -0.1194   23.8825 C   0  0  0  0  0  0  0  0  0  0  0  0
    8.6253   -0.7606   22.6923 C   0  0  3  0  0  0  0  0  0  0  0  0
    6.4916    4.5845   23.5453 C   0  0  0  0  0  0  0  0  0  0  0  0
    2.2732    4.1752   25.2635 C   0  0  0  0  0  0  0  0  0  0  0  0
    1.8227    2.1835   26.6886 C   0  0  0  0  0  0  0  0  0  0  0  0
    7.8612    1.7144   25.5743 C   0  0  0  0  0  0  0  0  0  0  0  0
    1.5101    2.0457   24.2220 C   0  0  0  0  0  0  0  0  0  0  0  0
    2.0567    2.5435   22.8985 C   0  0  0  0  0  0  0  0  0  0  0  0
    6.3072    0.3768   17.3417 N   0  0  0  0  0  0  0  0  0  0  0  0
    7.2305   -0.6898   20.7785 N   0  0  0  0  0  0  0  0  0  0  0  0
    7.3198    3.6044   24.2067 N   0  0  0  0  0  0  0  0  0  0  0  0
    8.6625    1.0133   24.4989 N   0  3  3  0  0  0  0  0  0  0  0  0
    2.2736    2.6681   25.3328 N   0  3  0  0  0  0  0  0  0  0  0  0
    8.8307    1.0396   21.0789 O   0  0  0  0  0  0  0  0  0  0  0  0
    5.5885    2.4445   25.2311 O   0  0  0  0  0  0  0  0  0  0  0  0
    3.4243    2.1582   22.7713 O   0  0  0  0  0  0  0  0  0  0  0  0
   13.4286   -2.1403   21.1072 Cl  0  0  0  0  0  0  0  0  0  0  0  0
    3.3418    2.9747   18.3367 H   0  0  0  0  0  0  0  0  0  0  0  0
   12.5040    0.5973   24.9741 H   0  0  0  0  0  0  0  0  0  0  0  0
    2.5418    3.3504   20.6305 H   0  0  0  0  0  0  0  0  0  0  0  0
   13.9926   -0.5176   23.3780 H   0  0  0  0  0  0  0  0  0  0  0  0
    5.3175    0.4856   22.1531 H   0  0  0  0  0  0  0  0  0  0  0  0
   10.6057   -2.0168   21.2239 H   0  0  0  0  0  0  0  0  0  0  0  0
    4.9141    1.7513   16.7475 H   0  0  0  0  0  0  0  0  0  0  0  0
    7.6459   -0.9759   18.1036 H   0  0  0  0  0  0  0  0  0  0  0  0
    9.7630   -0.1207   25.8244 H   0  0  0  0  0  0  0  0  0  0  0  0
   10.4585    1.4662   25.3691 H   0  0  0  0  0  0  0  0  0  0  0  0
    7.5159   -2.5477   23.3319 H   0  0  0  0  0  0  0  0  0  0  0  0
    8.7613   -2.9061   22.1409 H   0  0  0  0  0  0  0  0  0  0  0  0
    7.0594   -2.7244   20.5709 H   0  0  0  0  0  0  0  0  0  0  0  0
    5.9531   -1.9957   21.7710 H   0  0  0  0  0  0  0  0  0  0  0  0
    6.8972    0.2930   23.5750 H   0  0  0  0  0  0  0  0  0  0  0  0
    7.6778   -0.8486   24.6901 H   0  0  0  0  0  0  0  0  0  0  0  0
    6.2299    4.2252   22.5391 H   0  0  0  0  0  0  0  0  0  0  0  0
    5.5725    4.7415   24.1290 H   0  0  0  0  0  0  0  0  0  0  0  0
    7.0411    5.5339   23.4641 H   0  0  0  0  0  0  0  0  0  0  0  0
    1.2401    4.5137   25.3607 H   0  0  0  0  0  0  0  0  0  0  0  0
    2.8874    4.5477   26.0856 H   0  0  0  0  0  0  0  0  0  0  0  0
    2.6920    4.4654   24.2980 H   0  0  0  0  0  0  0  0  0  0  0  0
    0.7794    2.4769   26.8180 H   0  0  0  0  0  0  0  0  0  0  0  0
    1.9305    1.0973   26.7080 H   0  0  0  0  0  0  0  0  0  0  0  0
    2.4589    2.6546   27.4403 H   0  0  0  0  0  0  0  0  0  0  0  0
    7.4204    0.9331   26.1997 H   0  0  0  0  0  0  0  0  0  0  0  0
    8.5777    2.3054   26.1514 H   0  0  0  0  0  0  0  0  0  0  0  0
    1.6270    0.9643   24.3356 H   0  0  0  0  0  0  0  0  0  0  0  0
    0.4643    2.3321   24.3611 H   0  0  0  0  0  0  0  0  0  0  0  0
    1.4999    2.0902   22.0724 H   0  0  0  0  0  0  0  0  0  0  0  0
    1.9846    3.6329   22.8152 H   0  0  0  0  0  0  0  0  0  0  0  0
    8.3273    3.6730   24.0956 H   0  0  0  0  0  0  0  0  0  0  0  0
    8.7953    1.7233   23.7550 H   0  0  0  0  0  0  0  0  0  0  0  0
    3.2615    2.3771   25.2384 H   0  0  0  0  0  0  0  0  0  0  0  0
  1  3  2  0  0  0  0
  1  9  1  0  0  0  0
  2  4  2  0  0  0  0
  2 11  1  0  0  0  0
  3 14  1  0  0  0  0
  4 15  1  0  0  0  0
  5 10  1  0  0  0  0
  5 14  2  0  0  0  0
  6 12  1  0  0  0  0
  6 15  2  0  0  0  0
  7  9  2  0  0  0  0
  7 29  1  0  0  0  0
  8 13  1  0  0  0  0
  8 29  2  0  0  0  0
  9 10  1  0  0  0  0
 10 13  2  0  0  0  0
 11 12  2  0  0  0  0
 11 18  1  0  0  0  0
 12 22  1  0  0  0  0
 13 30  1  0  0  0  0
 14 36  1  0  0  0  0
 15 37  1  0  0  0  0
 16 22  1  0  0  0  0
 16 30  1  0  0  0  0
 16 34  2  0  0  0  0
 17 26  1  0  0  0  0
 17 31  1  0  0  0  0
 17 35  2  0  0  0  0
 18 32  1  0  0  0  0
 19 20  1  0  0  0  0
 19 22  1  0  0  0  0
 20 30  1  0  0  0  0
 21 22  1  0  0  0  0
 21 32  1  0  0  0  0
 23 31  1  0  0  0  0
 24 33  1  0  0  0  0
 25 33  1  0  0  0  0
 26 32  1  0  0  0  0
 27 28  1  0  0  0  0
 27 33  1  0  0  0  0
 28 36  1  0  0  0  0
  1 38  1  0  0  0  0
  2 39  1  0  0  0  0
  3 40  1  0  0  0  0
  4 41  1  0  0  0  0
  5 42  1  0  0  0  0
  6 43  1  0  0  0  0
  7 44  1  0  0  0  0
  8 45  1  0  0  0  0
 18 46  1  0  0  0  0
 18 47  1  0  0  0  0
 19 48  1  0  0  0  0
 19 49  1  0  0  0  0
 20 50  1  0  0  0  0
 20 51  1  0  0  0  0
 21 52  1  0  0  0  0
 21 53  1  0  0  0  0
 23 54  1  0  0  0  0
 23 55  1  0  0  0  0
 23 56  1  0  0  0  0
 24 57  1  0  0  0  0
 24 58  1  0  0  0  0
 24 59  1  0  0  0  0
 25 60  1  0  0  0  0
 25 61  1  0  0  0  0
 25 62  1  0  0  0  0
 26 63  1  0  0  0  0
 26 64  1  0  0  0  0
 27 65  1  0  0  0  0
 27 66  1  0  0  0  0
 28 67  1  0  0  0  0
 28 68  1  0  0  0  0
 31 69  1  0  0  0  0
 32 70  1  0  0  0  0
 33 71  1  0  0  0  0
M  CHG  2  32   1  33   1
M  END
> <scaffold>
tetrahydroisoquinoline-5spiro-isoquinoline

> <compound>
EDJ-MED-b6c6ee2b-1

> <compound_smiles>
CNC(=O)CN1Cc2ccc(cc2C3(C1)CCN(C3=O)c4cncc5c4cc(cc5)OCCN(C)C)Cl

> <enantiomer_smiles>
CNC(=O)C[N@]1Cc2ccc(cc2[C@@]3(C1)CCN(C3=O)c4cncc5c4cc(cc5)OCCN(C)C)Cl

> <clash_score>
0

> <docking_score>
3.4028234663852886e+38

> <overlap_score>
0.9799607992172241

> <MMFF_internal_energy>
223.3622541562501

> <docked_smiles>
CNC(=O)C[N@H+]1Cc2ccc(cc2[C@@]3(C1)CCN(C3=O)c4cncc5c4cc(cc5)OCC[NH+](C)C)Cl

$$$$
MAT-POS-38eb6498-2_1
  -OEChem-01042202313D

 65 70  0     1  0  0  0  0  0999 V2000
    6.5923    2.6670   28.4298 C   0  0  0  0  0  0  0  0  0  0  0  0
    3.7877    2.4205   19.1658 C   0  0  0  0  0  0  0  0  0  0  0  0
    3.3444    2.6278   20.4409 C   0  0  0  0  0  0  0  0  0  0  0  0
   12.0781    0.0316   24.1532 C   0  0  0  0  0  0  0  0  0  0  0  0
   12.9147   -0.6032   23.2559 C   0  0  0  0  0  0  0  0  0  0  0  0
    4.8986    1.0232   21.2985 C   0  0  0  0  0  0  0  0  0  0  0  0
   11.0005   -1.4332   22.0435 C   0  0  0  0  0  0  0  0  0  0  0  0
    5.3288    1.2339   17.6062 C   0  0  0  0  0  0  0  0  0  0  0  0
    6.8449   -0.2893   18.3747 C   0  0  0  0  0  0  0  0  0  0  0  0
    4.8238    1.4906   18.9051 C   0  0  0  0  0  0  0  0  0  0  0  0
    5.3995    0.7732   19.9944 C   0  0  0  0  0  0  0  0  0  0  0  0
    3.8974    1.9290   21.5048 C   0  0  0  0  0  0  0  0  0  0  0  0
   10.7056   -0.0626   23.9890 C   0  0  0  0  0  0  0  0  0  0  0  0
   10.1421   -0.7766   22.9242 C   0  0  0  0  0  0  0  0  0  0  0  0
    6.4452   -0.1472   19.6975 C   0  0  0  0  0  0  0  0  0  0  0  0
   12.3697   -1.3298   22.2224 C   0  0  0  0  0  0  0  0  0  0  0  0
    8.2504    0.0168   21.4265 C   0  0  0  0  0  0  0  0  0  0  0  0
    3.3939    2.1750   22.8575 C   0  0  0  0  0  0  0  0  0  0  0  0
    9.9496    0.5589   24.9527 C   0  0  0  0  0  0  0  0  0  0  0  0
    5.7974    0.2895   28.6968 C   0  0  0  0  0  0  0  0  0  0  0  0
    5.0772    0.8711   27.5163 C   0  0  0  0  0  0  0  0  0  0  0  0
    8.0155   -2.1541   22.4325 C   0  0  0  0  0  0  0  0  0  0  0  0
    6.9880   -1.9367   21.3575 C   0  0  0  0  0  0  0  0  0  0  0  0
    7.8737   -0.1194   23.8825 C   0  0  0  0  0  0  0  0  0  0  0  0
    6.4702    1.3516   27.8565 C   0  0  0  0  0  0  0  0  0  0  0  0
    8.6253   -0.7606   22.6923 C   0  0  3  0  0  0  0  0  0  0  0  0
    2.3160    3.8380   24.3926 C   0  0  0  0  0  0  0  0  0  0  0  0
    7.6088    0.9304   26.9546 C   0  0  0  0  0  0  0  0  0  0  0  0
    6.6907    3.7268   28.8917 N   0  0  0  0  0  0  0  0  0  0  0  0
    6.3072    0.3768   17.3417 N   0  0  0  0  0  0  0  0  0  0  0  0
    7.2305   -0.6898   20.7785 N   0  0  0  0  0  0  0  0  0  0  0  0
    8.6625    1.0133   24.4989 N   0  0  3  0  0  0  0  0  0  0  0  0
    2.8406    3.4361   23.1072 N   0  0  0  0  0  0  0  0  0  0  0  0
    8.8314    1.0394   21.0790 O   0  0  0  0  0  0  0  0  0  0  0  0
    3.4763    1.2959   23.7335 O   0  0  0  0  0  0  0  0  0  0  0  0
    6.4559    2.2241   24.9990 O   0  0  0  0  0  0  0  0  0  0  0  0
    8.6119    3.1278   25.9583 O   0  0  0  0  0  0  0  0  0  0  0  0
    7.7725    2.0180   25.5623 S   0  0  0  0  0  0  0  0  0  0  0  0
   13.4285   -2.1410   21.1076 Cl  0  0  0  0  0  0  0  0  0  0  0  0
    3.3432    2.9749   18.3363 H   0  0  0  0  0  0  0  0  0  0  0  0
    2.5429    3.3536   20.6248 H   0  0  0  0  0  0  0  0  0  0  0  0
   12.5038    0.5986   24.9731 H   0  0  0  0  0  0  0  0  0  0  0  0
   13.9925   -0.5165   23.3773 H   0  0  0  0  0  0  0  0  0  0  0  0
    5.3206    0.4827   22.1504 H   0  0  0  0  0  0  0  0  0  0  0  0
   10.6052   -2.0169   21.2237 H   0  0  0  0  0  0  0  0  0  0  0  0
    4.9142    1.7507   16.7472 H   0  0  0  0  0  0  0  0  0  0  0  0
    7.6463   -0.9752   18.1039 H   0  0  0  0  0  0  0  0  0  0  0  0
    9.7866   -0.1187   25.8304 H   0  0  0  0  0  0  0  0  0  0  0  0
   10.4816    1.4567   25.3600 H   0  0  0  0  0  0  0  0  0  0  0  0
    5.4358    0.5518   29.6847 H   0  0  0  0  0  0  0  0  0  0  0  0
    6.1481   -0.7331   28.6181 H   0  0  0  0  0  0  0  0  0  0  0  0
    4.9448    0.2375   26.6469 H   0  0  0  0  0  0  0  0  0  0  0  0
    4.2331    1.5218   27.7145 H   0  0  0  0  0  0  0  0  0  0  0  0
    7.5167   -2.5459   23.3332 H   0  0  0  0  0  0  0  0  0  0  0  0
    8.7666   -2.9029   22.1426 H   0  0  0  0  0  0  0  0  0  0  0  0
    7.0601   -2.7250   20.5715 H   0  0  0  0  0  0  0  0  0  0  0  0
    5.9530   -1.9963   21.7709 H   0  0  0  0  0  0  0  0  0  0  0  0
    6.8882    0.2643   23.5640 H   0  0  0  0  0  0  0  0  0  0  0  0
    7.6667   -0.8657   24.6729 H   0  0  0  0  0  0  0  0  0  0  0  0
    1.2326    3.6503   24.4220 H   0  0  0  0  0  0  0  0  0  0  0  0
    2.8100    3.2596   25.1872 H   0  0  0  0  0  0  0  0  0  0  0  0
    2.5065    4.9103   24.5472 H   0  0  0  0  0  0  0  0  0  0  0  0
    7.4436   -0.0759   26.5599 H   0  0  0  0  0  0  0  0  0  0  0  0
    8.5609    0.9485   27.4918 H   0  0  0  0  0  0  0  0  0  0  0  0
    2.8555    4.1383   22.3748 H   0  0  0  0  0  0  0  0  0  0  0  0
  1 25  1  0  0  0  0
  1 29  3  0  0  0  0
  2  3  2  0  0  0  0
  2 10  1  0  0  0  0
  3 12  1  0  0  0  0
  4  5  2  0  0  0  0
  4 13  1  0  0  0  0
  5 16  1  0  0  0  0
  6 11  1  0  0  0  0
  6 12  2  0  0  0  0
  7 14  1  0  0  0  0
  7 16  2  0  0  0  0
  8 10  2  0  0  0  0
  8 30  1  0  0  0  0
  9 15  1  0  0  0  0
  9 30  2  0  0  0  0
 10 11  1  0  0  0  0
 11 15  2  0  0  0  0
 12 18  1  0  0  0  0
 13 14  2  0  0  0  0
 13 19  1  0  0  0  0
 14 26  1  0  0  0  0
 15 31  1  0  0  0  0
 16 39  1  0  0  0  0
 17 26  1  0  0  0  0
 17 31  1  0  0  0  0
 17 34  2  0  0  0  0
 18 33  1  0  0  0  0
 18 35  2  0  0  0  0
 19 32  1  0  0  0  0
 20 21  1  0  0  0  0
 20 25  1  0  0  0  0
 21 25  1  0  0  0  0
 22 23  1  0  0  0  0
 22 26  1  0  0  0  0
 23 31  1  0  0  0  0
 24 26  1  0  0  0  0
 24 32  1  0  0  0  0
 25 28  1  0  0  0  0
 27 33  1  0  0  0  0
 28 38  1  0  0  0  0
 32 38  1  0  0  0  0
 36 38  2  0  0  0  0
 37 38  2  0  0  0  0
  2 40  1  0  0  0  0
  3 41  1  0  0  0  0
  4 42  1  0  0  0  0
  5 43  1  0  0  0  0
  6 44  1  0  0  0  0
  7 45  1  0  0  0  0
  8 46  1  0  0  0  0
  9 47  1  0  0  0  0
 19 48  1  0  0  0  0
 19 49  1  0  0  0  0
 20 50  1  0  0  0  0
 20 51  1  0  0  0  0
 21 52  1  0  0  0  0
 21 53  1  0  0  0  0
 22 54  1  0  0  0  0
 22 55  1  0  0  0  0
 23 56  1  0  0  0  0
 23 57  1  0  0  0  0
 24 58  1  0  0  0  0
 24 59  1  0  0  0  0
 27 60  1  0  0  0  0
 27 61  1  0  0  0  0
 27 62  1  0  0  0  0
 28 63  1  0  0  0  0
 28 64  1  0  0  0  0
 33 65  1  0  0  0  0
M  END
> <scaffold>
tetrahydroisoquinoline-5spiro-isoquinoline

> <compound>
MAT-POS-38eb6498-2

> <compound_smiles>
CNC(=O)c1ccc2cncc(c2c1)N3CCC4(C3=O)CN(Cc5c4cc(cc5)Cl)S(=O)(=O)CC6(CC6)C#N

> <enantiomer_smiles>
CNC(=O)c1ccc2cncc(c2c1)N3CC[C@]4(C3=O)C[N@](Cc5c4cc(cc5)Cl)S(=O)(=O)CC6(CC6)C#N

> <clash_score>
0

> <docking_score>
3.4028234663852886e+38

> <overlap_score>
0.976904571056366

> <MMFF_internal_energy>
103.46114865304799

> <docked_smiles>
CNC(=O)c1ccc2cncc(c2c1)N3CC[C@]4(C3=O)C[N@](Cc5c4cc(cc5)Cl)S(=O)(=O)CC6(CC6)C#N

$$$$
EDJ-MED-5cd3920d-3_1
  -OEChem-01042202313D

 61 66  0     1  0  0  0  0  0999 V2000
    3.7877    2.4205   19.1658 C   0  0  0  0  0  0  0  0  0  0  0  0
   12.0781    0.0316   24.1532 C   0  0  0  0  0  0  0  0  0  0  0  0
    3.3444    2.6278   20.4409 C   0  0  0  0  0  0  0  0  0  0  0  0
   12.9147   -0.6032   23.2559 C   0  0  0  0  0  0  0  0  0  0  0  0
    4.8986    1.0232   21.2985 C   0  0  0  0  0  0  0  0  0  0  0  0
   11.0005   -1.4332   22.0435 C   0  0  0  0  0  0  0  0  0  0  0  0
    5.3288    1.2339   17.6062 C   0  0  0  0  0  0  0  0  0  0  0  0
    6.8449   -0.2893   18.3747 C   0  0  0  0  0  0  0  0  0  0  0  0
    4.8238    1.4906   18.9051 C   0  0  0  0  0  0  0  0  0  0  0  0
    5.3995    0.7732   19.9944 C   0  0  0  0  0  0  0  0  0  0  0  0
   10.7056   -0.0626   23.9890 C   0  0  0  0  0  0  0  0  0  0  0  0
   10.1421   -0.7766   22.9242 C   0  0  0  0  0  0  0  0  0  0  0  0
    6.4452   -0.1472   19.6975 C   0  0  0  0  0  0  0  0  0  0  0  0
    3.8974    1.9290   21.5048 C   0  0  0  0  0  0  0  0  0  0  0  0
   12.3697   -1.3298   22.2224 C   0  0  0  0  0  0  0  0  0  0  0  0
    9.9496    0.5589   24.9527 C   0  0  0  0  0  0  0  0  0  0  0  0
    8.2504    0.0168   21.4265 C   0  0  0  0  0  0  0  0  0  0  0  0
    7.2743    2.2339   25.9911 C   0  0  0  0  0  0  0  0  0  0  0  0
    7.6484    3.1063   23.6248 C   0  0  0  0  0  0  0  0  0  0  0  0
    8.8572    3.4809   24.4312 C   0  0  0  0  0  0  0  0  0  0  0  0
    8.0155   -2.1541   22.4325 C   0  0  0  0  0  0  0  0  0  0  0  0
    6.9880   -1.9367   21.3575 C   0  0  0  0  0  0  0  0  0  0  0  0
    7.8737   -0.1194   23.8825 C   0  0  0  0  0  0  0  0  0  0  0  0
    8.6253   -0.7606   22.6923 C   0  0  3  0  0  0  0  0  0  0  0  0
    8.0937    2.2235   24.7641 C   0  0  0  0  0  0  0  0  0  0  0  0
    7.3837    1.9520   28.4592 C   0  0  0  0  0  0  0  0  0  0  0  0
    2.8647    1.0547   23.4730 C   0  0  0  0  0  0  0  0  0  0  0  0
    6.3072    0.3768   17.3417 N   0  0  0  0  0  0  0  0  0  0  0  0
    7.2305   -0.6898   20.7785 N   0  0  0  0  0  0  0  0  0  0  0  0
    8.6625    1.0133   24.4989 N   0  0  0  0  0  0  0  0  0  0  0  0
    7.9894    1.9860   27.1473 N   0  0  0  0  0  0  0  0  0  0  0  0
   10.3233    0.7301   26.1084 O   0  0  0  0  0  0  0  0  0  0  0  0
    8.8205    1.0412   21.0776 O   0  0  0  0  0  0  0  0  0  0  0  0
    6.0711    2.4522   25.9123 O   0  0  0  0  0  0  0  0  0  0  0  0
    3.4243    2.1582   22.7713 O   0  0  0  0  0  0  0  0  0  0  0  0
    3.8697    0.4569   24.1637 F   0  0  0  0  0  0  0  0  0  0  0  0
    1.9836    1.5143   24.3951 F   0  0  0  0  0  0  0  0  0  0  0  0
   13.4287   -2.1467   21.1125 Cl  0  0  0  0  0  0  0  0  0  0  0  0
    3.3418    2.9747   18.3367 H   0  0  0  0  0  0  0  0  0  0  0  0
   12.5188    0.5959   24.9712 H   0  0  0  0  0  0  0  0  0  0  0  0
    2.5418    3.3504   20.6305 H   0  0  0  0  0  0  0  0  0  0  0  0
   13.9920   -0.5225   23.3819 H   0  0  0  0  0  0  0  0  0  0  0  0
    5.3175    0.4856   22.1531 H   0  0  0  0  0  0  0  0  0  0  0  0
   10.6143   -2.0253   21.2265 H   0  0  0  0  0  0  0  0  0  0  0  0
    4.9141    1.7513   16.7475 H   0  0  0  0  0  0  0  0  0  0  0  0
    7.6459   -0.9759   18.1036 H   0  0  0  0  0  0  0  0  0  0  0  0
    6.7552    3.7072   23.7499 H   0  0  0  0  0  0  0  0  0  0  0  0
    7.8098    2.7620   22.6100 H   0  0  0  0  0  0  0  0  0  0  0  0
    9.8268    3.3863   23.9564 H   0  0  0  0  0  0  0  0  0  0  0  0
    8.7731    4.3325   25.0962 H   0  0  0  0  0  0  0  0  0  0  0  0
    7.5125   -2.5270   23.3387 H   0  0  0  0  0  0  0  0  0  0  0  0
    8.7589   -2.9107   22.1432 H   0  0  0  0  0  0  0  0  0  0  0  0
    7.0600   -2.7259   20.5720 H   0  0  0  0  0  0  0  0  0  0  0  0
    5.9527   -1.9961   21.7709 H   0  0  0  0  0  0  0  0  0  0  0  0
    6.9276    0.3247   23.5633 H   0  0  0  0  0  0  0  0  0  0  0  0
    7.6527   -0.8545   24.6567 H   0  0  0  0  0  0  0  0  0  0  0  0
    7.4071    2.9593   28.9006 H   0  0  0  0  0  0  0  0  0  0  0  0
    6.3405    1.6140   28.3726 H   0  0  0  0  0  0  0  0  0  0  0  0
    7.9423    1.2567   29.1029 H   0  0  0  0  0  0  0  0  0  0  0  0
    2.4010    0.3107   22.8165 H   0  0  0  0  0  0  0  0  0  0  0  0
    8.9884    1.8197   27.0716 H   0  0  0  0  0  0  0  0  0  0  0  0
  1  3  2  0  0  0  0
  1  9  1  0  0  0  0
  2  4  2  0  0  0  0
  2 11  1  0  0  0  0
  3 14  1  0  0  0  0
  4 15  1  0  0  0  0
  5 10  1  0  0  0  0
  5 14  2  0  0  0  0
  6 12  1  0  0  0  0
  6 15  2  0  0  0  0
  7  9  2  0  0  0  0
  7 28  1  0  0  0  0
  8 13  1  0  0  0  0
  8 28  2  0  0  0  0
  9 10  1  0  0  0  0
 10 13  2  0  0  0  0
 11 12  2  0  0  0  0
 11 16  1  0  0  0  0
 12 24  1  0  0  0  0
 13 29  1  0  0  0  0
 14 35  1  0  0  0  0
 15 38  1  0  0  0  0
 16 30  1  0  0  0  0
 16 32  2  0  0  0  0
 17 24  1  0  0  0  0
 17 29  1  0  0  0  0
 17 33  2  0  0  0  0
 18 25  1  0  0  0  0
 18 31  1  0  0  0  0
 18 34  2  0  0  0  0
 19 20  1  0  0  0  0
 19 25  1  0  0  0  0
 20 25  1  0  0  0  0
 21 22  1  0  0  0  0
 21 24  1  0  0  0  0
 22 29  1  0  0  0  0
 23 24  1  0  0  0  0
 23 30  1  0  0  0  0
 25 30  1  0  0  0  0
 26 31  1  0  0  0  0
 27 35  1  0  0  0  0
 27 36  1  0  0  0  0
 27 37  1  0  0  0  0
  1 39  1  0  0  0  0
  2 40  1  0  0  0  0
  3 41  1  0  0  0  0
  4 42  1  0  0  0  0
  5 43  1  0  0  0  0
  6 44  1  0  0  0  0
  7 45  1  0  0  0  0
  8 46  1  0  0  0  0
 19 47  1  0  0  0  0
 19 48  1  0  0  0  0
 20 49  1  0  0  0  0
 20 50  1  0  0  0  0
 21 51  1  0  0  0  0
 21 52  1  0  0  0  0
 22 53  1  0  0  0  0
 22 54  1  0  0  0  0
 23 55  1  0  0  0  0
 23 56  1  0  0  0  0
 26 57  1  0  0  0  0
 26 58  1  0  0  0  0
 26 59  1  0  0  0  0
 27 60  1  0  0  0  0
 31 61  1  0  0  0  0
M  END
> <scaffold>
tetrahydroisoquinoline-5spiro-isoquinoline

> <compound>
EDJ-MED-5cd3920d-3

> <compound_smiles>
CNC(=O)C1(CC1)N2CC3(CCN(C3=O)c4cncc5c4cc(cc5)OC(F)F)c6cc(ccc6C2=O)Cl

> <enantiomer_smiles>
CNC(=O)C1(CC1)N2C[C@]3(CCN(C3=O)c4cncc5c4cc(cc5)OC(F)F)c6cc(ccc6C2=O)Cl

> <clash_score>
0

> <docking_score>
3.4028234663852886e+38

> <overlap_score>
1.0

> <MMFF_internal_energy>
150.73003099814358

> <docked_smiles>
CNC(=O)C1(CC1)N2C[C@]3(CCN(C3=O)c4cncc5c4cc(cc5)OC(F)F)c6cc(ccc6C2=O)Cl

$$$$
VLA-UNK-61877630-9_1
  -OEChem-01042202313D

 61 66  0     1  0  0  0  0  0999 V2000
    7.3107    5.1021   26.4115 C   0  0  0  0  0  0  0  0  0  0  0  0
    3.3444    2.6278   20.4409 C   0  0  0  0  0  0  0  0  0  0  0  0
    3.8974    1.9290   21.5048 C   0  0  0  0  0  0  0  0  0  0  0  0
    3.7877    2.4205   19.1658 C   0  0  0  0  0  0  0  0  0  0  0  0
    4.8986    1.0232   21.2985 C   0  0  0  0  0  0  0  0  0  0  0  0
   12.0781    0.0316   24.1532 C   0  0  0  0  0  0  0  0  0  0  0  0
   12.9147   -0.6032   23.2559 C   0  0  0  0  0  0  0  0  0  0  0  0
   11.0005   -1.4332   22.0435 C   0  0  0  0  0  0  0  0  0  0  0  0
    5.3288    1.2339   17.6062 C   0  0  0  0  0  0  0  0  0  0  0  0
    6.8449   -0.2893   18.3747 C   0  0  0  0  0  0  0  0  0  0  0  0
    4.8238    1.4906   18.9051 C   0  0  0  0  0  0  0  0  0  0  0  0
    5.3995    0.7732   19.9944 C   0  0  0  0  0  0  0  0  0  0  0  0
   10.7056   -0.0626   23.9890 C   0  0  0  0  0  0  0  0  0  0  0  0
   10.1421   -0.7766   22.9242 C   0  0  0  0  0  0  0  0  0  0  0  0
    6.4452   -0.1472   19.6975 C   0  0  0  0  0  0  0  0  0  0  0  0
   12.3697   -1.3298   22.2224 C   0  0  0  0  0  0  0  0  0  0  0  0
    8.2504    0.0168   21.4265 C   0  0  0  0  0  0  0  0  0  0  0  0
    9.9496    0.5589   24.9527 C   0  0  0  0  0  0  0  0  0  0  0  0
    6.3604    5.0661   24.0767 C   0  0  0  0  0  0  0  0  0  0  0  0
    7.5388    5.9945   24.0649 C   0  0  0  0  0  0  0  0  0  0  0  0
    8.0155   -2.1541   22.4325 C   0  0  0  0  0  0  0  0  0  0  0  0
    6.9880   -1.9367   21.3575 C   0  0  0  0  0  0  0  0  0  0  0  0
    7.8737   -0.1194   23.8825 C   0  0  2  0  0  0  0  0  0  0  0  0
    7.5200    4.8183   25.0153 C   0  0  0  0  0  0  0  0  0  0  0  0
    8.6253   -0.7606   22.6923 C   0  0  1  0  0  0  0  0  0  0  0  0
    8.4363    3.6514   24.7223 C   0  0  0  0  0  0  0  0  0  0  0  0
    7.4526   -1.1158   24.9978 C   0  0  0  0  0  0  0  0  0  0  0  0
    7.1421    5.3307   27.5365 N   0  0  0  0  0  0  0  0  0  0  0  0
    6.3072    0.3768   17.3417 N   0  0  0  0  0  0  0  0  0  0  0  0
    7.2305   -0.6898   20.7785 N   0  0  0  0  0  0  0  0  0  0  0  0
    8.6625    1.0133   24.4989 N   0  0  3  0  0  0  0  0  0  0  0  0
    8.8203    1.0458   21.0796 O   0  0  0  0  0  0  0  0  0  0  0  0
    8.2900    2.0755   26.8013 O   0  0  0  0  0  0  0  0  0  0  0  0
    6.4128    2.0443   25.1099 O   0  0  0  0  0  0  0  0  0  0  0  0
    6.6430   -2.0567   24.4956 F   0  0  0  0  0  0  0  0  0  0  0  0
    8.5505   -1.6988   25.4953 F   0  0  0  0  0  0  0  0  0  0  0  0
    6.8159   -0.4650   25.9796 F   0  0  0  0  0  0  0  0  0  0  0  0
    7.8207    2.1459   25.4331 S   0  0  0  0  0  0  0  0  0  0  0  0
   13.4292   -2.1371   21.1056 Cl  0  0  0  0  0  0  0  0  0  0  0  0
    2.5443    3.3508   20.6368 H   0  0  0  0  0  0  0  0  0  0  0  0
    3.5189    2.1137   22.5166 H   0  0  0  0  0  0  0  0  0  0  0  0
    3.3421    2.9744   18.3363 H   0  0  0  0  0  0  0  0  0  0  0  0
    5.3131    0.4893   22.1569 H   0  0  0  0  0  0  0  0  0  0  0  0
   12.5038    0.5990   24.9725 H   0  0  0  0  0  0  0  0  0  0  0  0
   13.9928   -0.5137   23.3752 H   0  0  0  0  0  0  0  0  0  0  0  0
   10.6086   -2.0137   21.2206 H   0  0  0  0  0  0  0  0  0  0  0  0
    4.9151    1.7511   16.7471 H   0  0  0  0  0  0  0  0  0  0  0  0
    7.6455   -0.9765   18.1038 H   0  0  0  0  0  0  0  0  0  0  0  0
    9.7870   -0.1101   25.8321 H   0  0  0  0  0  0  0  0  0  0  0  0
   10.4811    1.4573   25.3496 H   0  0  0  0  0  0  0  0  0  0  0  0
    5.4280    5.4434   24.4814 H   0  0  0  0  0  0  0  0  0  0  0  0
    6.2317    4.4062   23.2265 H   0  0  0  0  0  0  0  0  0  0  0  0
    8.1989    5.9571   23.2060 H   0  0  0  0  0  0  0  0  0  0  0  0
    7.3943    6.9933   24.4608 H   0  0  0  0  0  0  0  0  0  0  0  0
    7.5136   -2.5454   23.3329 H   0  0  0  0  0  0  0  0  0  0  0  0
    8.7611   -2.9091   22.1426 H   0  0  0  0  0  0  0  0  0  0  0  0
    7.0560   -2.7252   20.5705 H   0  0  0  0  0  0  0  0  0  0  0  0
    5.9528   -1.9955   21.7726 H   0  0  0  0  0  0  0  0  0  0  0  0
    6.9171    0.3187   23.5177 H   0  0  0  0  0  0  0  0  0  0  0  0
    9.4324    3.8214   25.1401 H   0  0  0  0  0  0  0  0  0  0  0  0
    8.5272    3.4860   23.6453 H   0  0  0  0  0  0  0  0  0  0  0  0
  1 24  1  0  0  0  0
  1 28  3  0  0  0  0
  2  3  2  0  0  0  0
  2  4  1  0  0  0  0
  3  5  1  0  0  0  0
  4 11  2  0  0  0  0
  5 12  2  0  0  0  0
  6  7  2  0  0  0  0
  6 13  1  0  0  0  0
  7 16  1  0  0  0  0
  8 14  1  0  0  0  0
  8 16  2  0  0  0  0
  9 11  1  0  0  0  0
  9 29  2  0  0  0  0
 10 15  2  0  0  0  0
 10 29  1  0  0  0  0
 11 12  1  0  0  0  0
 12 15  1  0  0  0  0
 13 14  2  0  0  0  0
 13 18  1  0  0  0  0
 14 25  1  6  0  0  0
 15 30  1  0  0  0  0
 16 39  1  0  0  0  0
 17 25  1  1  0  0  0
 17 30  1  0  0  0  0
 17 32  2  0  0  0  0
 18 31  1  0  0  0  0
 19 20  1  0  0  0  0
 19 24  1  0  0  0  0
 20 24  1  0  0  0  0
 21 22  1  0  0  0  0
 21 25  1  1  0  0  0
 22 30  1  0  0  0  0
 23 25  1  6  0  0  0
 23 27  1  1  0  0  0
 23 31  1  0  0  0  0
 24 26  1  0  0  0  0
 26 38  1  0  0  0  0
 27 35  1  0  0  0  0
 27 36  1  0  0  0  0
 27 37  1  0  0  0  0
 31 38  1  0  0  0  0
 33 38  2  0  0  0  0
 34 38  2  0  0  0  0
  2 40  1  0  0  0  0
  3 41  1  0  0  0  0
  4 42  1  0  0  0  0
  5 43  1  0  0  0  0
  6 44  1  0  0  0  0
  7 45  1  0  0  0  0
  8 46  1  0  0  0  0
  9 47  1  0  0  0  0
 10 48  1  0  0  0  0
 18 49  1  0  0  0  0
 18 50  1  0  0  0  0
 19 51  1  0  0  0  0
 19 52  1  0  0  0  0
 20 53  1  0  0  0  0
 20 54  1  0  0  0  0
 21 55  1  0  0  0  0
 21 56  1  0  0  0  0
 22 57  1  0  0  0  0
 22 58  1  0  0  0  0
 23 59  1  0  0  0  0
 26 60  1  0  0  0  0
 26 61  1  0  0  0  0
M  END
> <scaffold>
tetrahydroisoquinoline-5spiro-isoquinoline

> <compound>
VLA-UNK-61877630-9

> <compound_smiles>
c1ccc2c(c1)cncc2N3CC[C@@]4(C3=O)c5cc(ccc5CN(C4C(F)(F)F)S(=O)(=O)CC6(CC6)C#N)Cl

> <enantiomer_smiles>
c1ccc2c(c1)cncc2N3CC[C@@]4(C3=O)c5cc(ccc5C[N@@]([C@@H]4C(F)(F)F)S(=O)(=O)CC6(CC6)C#N)Cl

> <clash_score>
0

> <docking_score>
3.4028234663852886e+38

> <overlap_score>
0.9818355441093445

> <MMFF_internal_energy>
151.3234783599184

> <docked_smiles>
c1ccc2c(c1)cncc2N3CC[C@@]4(C3=O)c5cc(ccc5C[N@@]([C@@H]4C(F)(F)F)S(=O)(=O)CC6(CC6)C#N)Cl

$$$$
ALP-POS-ecbed2ba-11_1
  -OEChem-01042202313D

 65 70  0     1  0  0  0  0  0999 V2000
    6.4708    2.8308   27.9786 C   0  0  0  0  0  0  0  0  0  0  0  0
    3.3444    2.6278   20.4409 C   0  0  0  0  0  0  0  0  0  0  0  0
    3.8974    1.9290   21.5048 C   0  0  0  0  0  0  0  0  0  0  0  0
    3.7877    2.4205   19.1658 C   0  0  0  0  0  0  0  0  0  0  0  0
    4.8986    1.0232   21.2985 C   0  0  0  0  0  0  0  0  0  0  0  0
   12.0781    0.0316   24.1532 C   0  0  0  0  0  0  0  0  0  0  0  0
   12.9147   -0.6032   23.2559 C   0  0  0  0  0  0  0  0  0  0  0  0
   11.0005   -1.4332   22.0435 C   0  0  0  0  0  0  0  0  0  0  0  0
    5.3288    1.2339   17.6062 C   0  0  0  0  0  0  0  0  0  0  0  0
    6.8449   -0.2893   18.3747 C   0  0  0  0  0  0  0  0  0  0  0  0
    4.8238    1.4906   18.9051 C   0  0  0  0  0  0  0  0  0  0  0  0
    5.3995    0.7732   19.9944 C   0  0  0  0  0  0  0  0  0  0  0  0
   10.7056   -0.0626   23.9890 C   0  0  0  0  0  0  0  0  0  0  0  0
   10.1421   -0.7766   22.9242 C   0  0  0  0  0  0  0  0  0  0  0  0
    6.4452   -0.1472   19.6975 C   0  0  0  0  0  0  0  0  0  0  0  0
   12.3697   -1.3298   22.2224 C   0  0  0  0  0  0  0  0  0  0  0  0
    8.2504    0.0168   21.4265 C   0  0  0  0  0  0  0  0  0  0  0  0
    9.9496    0.5589   24.9527 C   0  0  0  0  0  0  0  0  0  0  0  0
    8.0155   -2.1541   22.4325 C   0  0  0  0  0  0  0  0  0  0  0  0
    5.0972    0.9050   27.2865 C   0  0  0  0  0  0  0  0  0  0  0  0
    6.6195    0.7429   29.2796 C   0  0  0  0  0  0  0  0  0  0  0  0
    6.9880   -1.9367   21.3575 C   0  0  0  0  0  0  0  0  0  0  0  0
    7.8737   -0.1194   23.8825 C   0  0  0  0  0  0  0  0  0  0  0  0
    4.8732   -0.5975   27.4269 C   0  0  0  0  0  0  0  0  0  0  0  0
    6.3076   -0.7503   29.3048 C   0  0  0  0  0  0  0  0  0  0  0  0
    6.4522    1.3537   27.8725 C   0  0  0  0  0  0  0  0  0  0  0  0
    8.6253   -0.7606   22.6923 C   0  0  3  0  0  0  0  0  0  0  0  0
    7.6108    0.9276   26.9527 C   0  0  0  0  0  0  0  0  0  0  0  0
    6.4854    3.9880   28.0616 N   0  0  0  0  0  0  0  0  0  0  0  0
    6.3072    0.3768   17.3417 N   0  0  0  0  0  0  0  0  0  0  0  0
    7.2305   -0.6898   20.7785 N   0  0  0  0  0  0  0  0  0  0  0  0
    8.6625    1.0133   24.4989 N   0  0  3  0  0  0  0  0  0  0  0  0
    8.8314    1.0394   21.0790 O   0  0  0  0  0  0  0  0  0  0  0  0
    6.4564    2.2173   24.9953 O   0  0  0  0  0  0  0  0  0  0  0  0
    8.6044    3.1320   25.9623 O   0  0  0  0  0  0  0  0  0  0  0  0
    5.0032   -1.0041   28.7874 O   0  0  0  0  0  0  0  0  0  0  0  0
    7.7725    2.0180   25.5623 S   0  0  0  0  0  0  0  0  0  0  0  0
   13.4285   -2.1410   21.1076 Cl  0  0  0  0  0  0  0  0  0  0  0  0
    2.5443    3.3508   20.6368 H   0  0  0  0  0  0  0  0  0  0  0  0
    3.5189    2.1137   22.5166 H   0  0  0  0  0  0  0  0  0  0  0  0
    3.3421    2.9744   18.3363 H   0  0  0  0  0  0  0  0  0  0  0  0
    5.3131    0.4893   22.1569 H   0  0  0  0  0  0  0  0  0  0  0  0
   12.5038    0.5986   24.9731 H   0  0  0  0  0  0  0  0  0  0  0  0
   13.9925   -0.5165   23.3773 H   0  0  0  0  0  0  0  0  0  0  0  0
   10.6052   -2.0169   21.2237 H   0  0  0  0  0  0  0  0  0  0  0  0
    4.9151    1.7511   16.7471 H   0  0  0  0  0  0  0  0  0  0  0  0
    7.6455   -0.9765   18.1038 H   0  0  0  0  0  0  0  0  0  0  0  0
    9.7866   -0.1187   25.8304 H   0  0  0  0  0  0  0  0  0  0  0  0
   10.4816    1.4567   25.3600 H   0  0  0  0  0  0  0  0  0  0  0  0
    7.5167   -2.5459   23.3332 H   0  0  0  0  0  0  0  0  0  0  0  0
    8.7666   -2.9029   22.1426 H   0  0  0  0  0  0  0  0  0  0  0  0
    5.0053    1.2001   26.2339 H   0  0  0  0  0  0  0  0  0  0  0  0
    4.2887    1.4176   27.8269 H   0  0  0  0  0  0  0  0  0  0  0  0
    5.9253    1.2433   29.9695 H   0  0  0  0  0  0  0  0  0  0  0  0
    7.6296    0.9206   29.6694 H   0  0  0  0  0  0  0  0  0  0  0  0
    7.0601   -2.7250   20.5715 H   0  0  0  0  0  0  0  0  0  0  0  0
    5.9530   -1.9963   21.7709 H   0  0  0  0  0  0  0  0  0  0  0  0
    6.8882    0.2643   23.5640 H   0  0  0  0  0  0  0  0  0  0  0  0
    7.6667   -0.8657   24.6729 H   0  0  0  0  0  0  0  0  0  0  0  0
    3.8581   -0.8489   27.1023 H   0  0  0  0  0  0  0  0  0  0  0  0
    5.5643   -1.1749   26.8031 H   0  0  0  0  0  0  0  0  0  0  0  0
    7.0457   -1.3329   28.7426 H   0  0  0  0  0  0  0  0  0  0  0  0
    6.3295   -1.1121   30.3380 H   0  0  0  0  0  0  0  0  0  0  0  0
    7.4462   -0.0781   26.5562 H   0  0  0  0  0  0  0  0  0  0  0  0
    8.5633    0.9456   27.4891 H   0  0  0  0  0  0  0  0  0  0  0  0
  1 26  1  0  0  0  0
  1 29  3  0  0  0  0
  2  3  2  0  0  0  0
  2  4  1  0  0  0  0
  3  5  1  0  0  0  0
  4 11  2  0  0  0  0
  5 12  2  0  0  0  0
  6  7  2  0  0  0  0
  6 13  1  0  0  0  0
  7 16  1  0  0  0  0
  8 14  1  0  0  0  0
  8 16  2  0  0  0  0
  9 11  1  0  0  0  0
  9 30  2  0  0  0  0
 10 15  2  0  0  0  0
 10 30  1  0  0  0  0
 11 12  1  0  0  0  0
 12 15  1  0  0  0  0
 13 14  2  0  0  0  0
 13 18  1  0  0  0  0
 14 27  1  0  0  0  0
 15 31  1  0  0  0  0
 16 38  1  0  0  0  0
 17 27  1  0  0  0  0
 17 31  1  0  0  0  0
 17 33  2  0  0  0  0
 18 32  1  0  0  0  0
 19 22  1  0  0  0  0
 19 27  1  0  0  0  0
 20 24  1  0  0  0  0
 20 26  1  0  0  0  0
 21 25  1  0  0  0  0
 21 26  1  0  0  0  0
 22 31  1  0  0  0  0
 23 27  1  0  0  0  0
 23 32  1  0  0  0  0
 24 36  1  0  0  0  0
 25 36  1  0  0  0  0
 26 28  1  0  0  0  0
 28 37  1  0  0  0  0
 32 37  1  0  0  0  0
 34 37  2  0  0  0  0
 35 37  2  0  0  0  0
  2 39  1  0  0  0  0
  3 40  1  0  0  0  0
  4 41  1  0  0  0  0
  5 42  1  0  0  0  0
  6 43  1  0  0  0  0
  7 44  1  0  0  0  0
  8 45  1  0  0  0  0
  9 46  1  0  0  0  0
 10 47  1  0  0  0  0
 18 48  1  0  0  0  0
 18 49  1  0  0  0  0
 19 50  1  0  0  0  0
 19 51  1  0  0  0  0
 20 52  1  0  0  0  0
 20 53  1  0  0  0  0
 21 54  1  0  0  0  0
 21 55  1  0  0  0  0
 22 56  1  0  0  0  0
 22 57  1  0  0  0  0
 23 58  1  0  0  0  0
 23 59  1  0  0  0  0
 24 60  1  0  0  0  0
 24 61  1  0  0  0  0
 25 62  1  0  0  0  0
 25 63  1  0  0  0  0
 28 64  1  0  0  0  0
 28 65  1  0  0  0  0
M  END
> <scaffold>
tetrahydroisoquinoline-5spiro-isoquinoline

> <compound>
ALP-POS-ecbed2ba-11

> <compound_smiles>
c1ccc2c(c1)cncc2N3CCC4(C3=O)CN(Cc5c4cc(cc5)Cl)S(=O)(=O)CC6(CCOCC6)C#N

> <enantiomer_smiles>
c1ccc2c(c1)cncc2N3CC[C@]4(C3=O)C[N@](Cc5c4cc(cc5)Cl)S(=O)(=O)CC6(CCOCC6)C#N

> <clash_score>
0

> <docking_score>
3.4028234663852886e+38

> <overlap_score>
0.9650396704673767

> <MMFF_internal_energy>
68.25936732571618

> <docked_smiles>
c1ccc2c(c1)cncc2N3CC[C@]4(C3=O)C[N@](Cc5c4cc(cc5)Cl)S(=O)(=O)CC6(CCOCC6)C#N

$$$$
MAT-POS-853c0ffa-20_1
  -OEChem-01042202313D

 70 75  0     1  0  0  0  0  0999 V2000
    3.7877    2.4205   19.1658 C   0  0  0  0  0  0  0  0  0  0  0  0
   12.0781    0.0316   24.1532 C   0  0  0  0  0  0  0  0  0  0  0  0
    3.3444    2.6278   20.4409 C   0  0  0  0  0  0  0  0  0  0  0  0
   12.9147   -0.6032   23.2559 C   0  0  0  0  0  0  0  0  0  0  0  0
    4.8986    1.0232   21.2985 C   0  0  0  0  0  0  0  0  0  0  0  0
   11.0005   -1.4332   22.0435 C   0  0  0  0  0  0  0  0  0  0  0  0
    5.3288    1.2339   17.6062 C   0  0  0  0  0  0  0  0  0  0  0  0
    6.8449   -0.2893   18.3747 C   0  0  0  0  0  0  0  0  0  0  0  0
    4.8238    1.4906   18.9051 C   0  0  0  0  0  0  0  0  0  0  0  0
    5.3995    0.7732   19.9944 C   0  0  0  0  0  0  0  0  0  0  0  0
   10.7056   -0.0626   23.9890 C   0  0  0  0  0  0  0  0  0  0  0  0
   10.1421   -0.7766   22.9242 C   0  0  0  0  0  0  0  0  0  0  0  0
    3.8974    1.9290   21.5048 C   0  0  0  0  0  0  0  0  0  0  0  0
    6.4452   -0.1472   19.6975 C   0  0  0  0  0  0  0  0  0  0  0  0
   12.3697   -1.3298   22.2224 C   0  0  0  0  0  0  0  0  0  0  0  0
    8.2504    0.0168   21.4265 C   0  0  0  0  0  0  0  0  0  0  0  0
    9.9496    0.5589   24.9527 C   0  0  0  0  0  0  0  0  0  0  0  0
    7.5795    2.5373   28.9869 C   0  0  0  0  0  0  0  0  0  0  0  0
    7.1785    1.1826   29.4969 C   0  0  0  0  0  0  0  0  0  0  0  0
    8.0155   -2.1541   22.4325 C   0  0  0  0  0  0  0  0  0  0  0  0
    6.9880   -1.9367   21.3575 C   0  0  0  0  0  0  0  0  0  0  0  0
    7.8737   -0.1194   23.8825 C   0  0  0  0  0  0  0  0  0  0  0  0
    8.6253   -0.7606   22.6923 C   0  0  3  0  0  0  0  0  0  0  0  0
    6.8379    1.5828   28.0804 C   0  0  0  0  0  0  0  0  0  0  0  0
    5.4005    1.8877   27.7599 C   0  0  0  0  0  0  0  0  0  0  0  0
    1.8743    1.8831   23.1000 C   0  0  0  0  0  0  0  0  0  0  0  0
    3.6646    3.6383   23.3204 C   0  0  0  0  0  0  0  0  0  0  0  0
    7.6088    0.9304   26.9546 C   0  0  0  0  0  0  0  0  0  0  0  0
    3.3812    2.1809   22.8921 C   0  0  0  0  0  0  0  0  0  0  0  0
    6.3072    0.3768   17.3417 N   0  0  0  0  0  0  0  0  0  0  0  0
    7.2305   -0.6898   20.7785 N   0  0  0  0  0  0  0  0  0  0  0  0
    8.6625    1.0133   24.4989 N   0  0  3  0  0  0  0  0  0  0  0  0
    8.8314    1.0394   21.0790 O   0  0  0  0  0  0  0  0  0  0  0  0
    6.4559    2.2241   24.9990 O   0  0  0  0  0  0  0  0  0  0  0  0
    8.6119    3.1278   25.9583 O   0  0  0  0  0  0  0  0  0  0  0  0
    4.0602    1.3287   23.8428 O   0  0  0  0  0  0  0  0  0  0  0  0
    7.7725    2.0180   25.5623 S   0  0  0  0  0  0  0  0  0  0  0  0
   13.4285   -2.1410   21.1076 Cl  0  0  0  0  0  0  0  0  0  0  0  0
    3.3431    2.9748   18.3360 H   0  0  0  0  0  0  0  0  0  0  0  0
   12.5038    0.5986   24.9731 H   0  0  0  0  0  0  0  0  0  0  0  0
    2.5422    3.3527   20.6266 H   0  0  0  0  0  0  0  0  0  0  0  0
   13.9925   -0.5165   23.3773 H   0  0  0  0  0  0  0  0  0  0  0  0
    5.3189    0.4834   22.1514 H   0  0  0  0  0  0  0  0  0  0  0  0
   10.6052   -2.0169   21.2237 H   0  0  0  0  0  0  0  0  0  0  0  0
    4.9144    1.7509   16.7472 H   0  0  0  0  0  0  0  0  0  0  0  0
    7.6460   -0.9759   18.1038 H   0  0  0  0  0  0  0  0  0  0  0  0
    9.7866   -0.1187   25.8304 H   0  0  0  0  0  0  0  0  0  0  0  0
   10.4816    1.4567   25.3600 H   0  0  0  0  0  0  0  0  0  0  0  0
    7.0508    3.3986   29.3777 H   0  0  0  0  0  0  0  0  0  0  0  0
    8.6328    2.7143   28.8042 H   0  0  0  0  0  0  0  0  0  0  0  0
    7.9633    0.4526   29.6559 H   0  0  0  0  0  0  0  0  0  0  0  0
    6.3812    1.1368   30.2294 H   0  0  0  0  0  0  0  0  0  0  0  0
    7.5167   -2.5459   23.3332 H   0  0  0  0  0  0  0  0  0  0  0  0
    8.7666   -2.9029   22.1426 H   0  0  0  0  0  0  0  0  0  0  0  0
    7.0601   -2.7250   20.5715 H   0  0  0  0  0  0  0  0  0  0  0  0
    5.9530   -1.9963   21.7709 H   0  0  0  0  0  0  0  0  0  0  0  0
    6.8882    0.2643   23.5640 H   0  0  0  0  0  0  0  0  0  0  0  0
    7.6667   -0.8657   24.6729 H   0  0  0  0  0  0  0  0  0  0  0  0
    4.9759    1.1244   27.0964 H   0  0  0  0  0  0  0  0  0  0  0  0
    5.3077    2.8595   27.2598 H   0  0  0  0  0  0  0  0  0  0  0  0
    4.7928    1.9179   28.6726 H   0  0  0  0  0  0  0  0  0  0  0  0
    1.5542    2.0851   24.1294 H   0  0  0  0  0  0  0  0  0  0  0  0
    1.2404    2.4783   22.4352 H   0  0  0  0  0  0  0  0  0  0  0  0
    1.6695    0.8219   22.9153 H   0  0  0  0  0  0  0  0  0  0  0  0
    3.3022    3.8494   24.3332 H   0  0  0  0  0  0  0  0  0  0  0  0
    3.1983    4.3518   22.6324 H   0  0  0  0  0  0  0  0  0  0  0  0
    4.7439    3.8318   23.3327 H   0  0  0  0  0  0  0  0  0  0  0  0
    7.0989    0.0296   26.6018 H   0  0  0  0  0  0  0  0  0  0  0  0
    8.6192    0.6630   27.2756 H   0  0  0  0  0  0  0  0  0  0  0  0
    3.6813    1.5509   24.7009 H   0  0  0  0  0  0  0  0  0  0  0  0
  1  3  2  0  0  0  0
  1  9  1  0  0  0  0
  2  4  2  0  0  0  0
  2 11  1  0  0  0  0
  3 13  1  0  0  0  0
  4 15  1  0  0  0  0
  5 10  1  0  0  0  0
  5 13  2  0  0  0  0
  6 12  1  0  0  0  0
  6 15  2  0  0  0  0
  7  9  2  0  0  0  0
  7 30  1  0  0  0  0
  8 14  1  0  0  0  0
  8 30  2  0  0  0  0
  9 10  1  0  0  0  0
 10 14  2  0  0  0  0
 11 12  2  0  0  0  0
 11 17  1  0  0  0  0
 12 23  1  0  0  0  0
 13 29  1  0  0  0  0
 14 31  1  0  0  0  0
 15 38  1  0  0  0  0
 16 23  1  0  0  0  0
 16 31  1  0  0  0  0
 16 33  2  0  0  0  0
 17 32  1  0  0  0  0
 18 19  1  0  0  0  0
 18 24  1  0  0  0  0
 19 24  1  0  0  0  0
 20 21  1  0  0  0  0
 20 23  1  0  0  0  0
 21 31  1  0  0  0  0
 22 23  1  0  0  0  0
 22 32  1  0  0  0  0
 24 25  1  0  0  0  0
 24 28  1  0  0  0  0
 26 29  1  0  0  0  0
 27 29  1  0  0  0  0
 28 37  1  0  0  0  0
 29 36  1  0  0  0  0
 32 37  1  0  0  0  0
 34 37  2  0  0  0  0
 35 37  2  0  0  0  0
  1 39  1  0  0  0  0
  2 40  1  0  0  0  0
  3 41  1  0  0  0  0
  4 42  1  0  0  0  0
  5 43  1  0  0  0  0
  6 44  1  0  0  0  0
  7 45  1  0  0  0  0
  8 46  1  0  0  0  0
 17 47  1  0  0  0  0
 17 48  1  0  0  0  0
 18 49  1  0  0  0  0
 18 50  1  0  0  0  0
 19 51  1  0  0  0  0
 19 52  1  0  0  0  0
 20 53  1  0  0  0  0
 20 54  1  0  0  0  0
 21 55  1  0  0  0  0
 21 56  1  0  0  0  0
 22 57  1  0  0  0  0
 22 58  1  0  0  0  0
 25 59  1  0  0  0  0
 25 60  1  0  0  0  0
 25 61  1  0  0  0  0
 26 62  1  0  0  0  0
 26 63  1  0  0  0  0
 26 64  1  0  0  0  0
 27 65  1  0  0  0  0
 27 66  1  0  0  0  0
 27 67  1  0  0  0  0
 28 68  1  0  0  0  0
 28 69  1  0  0  0  0
 36 70  1  0  0  0  0
M  END
> <scaffold>
tetrahydroisoquinoline-5spiro-isoquinoline

> <compound>
MAT-POS-853c0ffa-20

> <compound_smiles>
CC1(CC1)CS(=O)(=O)N2Cc3ccc(cc3C4(C2)CCN(C4=O)c5cncc6c5cc(cc6)C(C)(C)O)Cl

> <enantiomer_smiles>
CC1(CC1)CS(=O)(=O)[N@]2Cc3ccc(cc3[C@@]4(C2)CCN(C4=O)c5cncc6c5cc(cc6)C(C)(C)O)Cl

> <clash_score>
0

> <docking_score>
3.4028234663852886e+38

> <overlap_score>
0.9793857336044312

> <MMFF_internal_energy>
157.99062269695415

> <docked_smiles>
CC1(CC1)CS(=O)(=O)[N@]2Cc3ccc(cc3[C@@]4(C2)CCN(C4=O)c5cncc6c5cc(cc6)C(C)(C)O)Cl

$$$$
EDJ-MED-5cd3920d-2_1
  -OEChem-01042202313D

 61 66  0     1  0  0  0  0  0999 V2000
    6.5923    2.6670   28.4298 C   0  0  0  0  0  0  0  0  0  0  0  0
    3.7877    2.4205   19.1658 C   0  0  0  0  0  0  0  0  0  0  0  0
   12.0781    0.0316   24.1532 C   0  0  0  0  0  0  0  0  0  0  0  0
    3.3444    2.6278   20.4409 C   0  0  0  0  0  0  0  0  0  0  0  0
   12.9147   -0.6032   23.2559 C   0  0  0  0  0  0  0  0  0  0  0  0
    4.8986    1.0232   21.2985 C   0  0  0  0  0  0  0  0  0  0  0  0
   11.0005   -1.4332   22.0435 C   0  0  0  0  0  0  0  0  0  0  0  0
    5.3288    1.2339   17.6062 C   0  0  0  0  0  0  0  0  0  0  0  0
    6.8449   -0.2893   18.3747 C   0  0  0  0  0  0  0  0  0  0  0  0
    4.8238    1.4906   18.9051 C   0  0  0  0  0  0  0  0  0  0  0  0
    5.3995    0.7732   19.9944 C   0  0  0  0  0  0  0  0  0  0  0  0
   10.7056   -0.0626   23.9890 C   0  0  0  0  0  0  0  0  0  0  0  0
   10.1421   -0.7766   22.9242 C   0  0  0  0  0  0  0  0  0  0  0  0
    3.8974    1.9290   21.5048 C   0  0  0  0  0  0  0  0  0  0  0  0
    6.4452   -0.1472   19.6975 C   0  0  0  0  0  0  0  0  0  0  0  0
   12.3697   -1.3298   22.2224 C   0  0  0  0  0  0  0  0  0  0  0  0
    8.2504    0.0168   21.4265 C   0  0  0  0  0  0  0  0  0  0  0  0
    9.9496    0.5589   24.9527 C   0  0  0  0  0  0  0  0  0  0  0  0
    5.7974    0.2895   28.6968 C   0  0  0  0  0  0  0  0  0  0  0  0
    5.0772    0.8711   27.5163 C   0  0  0  0  0  0  0  0  0  0  0  0
    8.0155   -2.1541   22.4325 C   0  0  0  0  0  0  0  0  0  0  0  0
    6.9880   -1.9367   21.3575 C   0  0  0  0  0  0  0  0  0  0  0  0
    7.8737   -0.1194   23.8825 C   0  0  0  0  0  0  0  0  0  0  0  0
    6.4702    1.3516   27.8565 C   0  0  0  0  0  0  0  0  0  0  0  0
    8.6253   -0.7606   22.6923 C   0  0  3  0  0  0  0  0  0  0  0  0
    7.6088    0.9304   26.9546 C   0  0  0  0  0  0  0  0  0  0  0  0
    3.3812    2.1809   22.8921 C   0  0  0  0  0  0  0  0  0  0  0  0
    6.6907    3.7268   28.8917 N   0  0  0  0  0  0  0  0  0  0  0  0
    6.3072    0.3768   17.3417 N   0  0  0  0  0  0  0  0  0  0  0  0
    7.2305   -0.6898   20.7785 N   0  0  0  0  0  0  0  0  0  0  0  0
    8.6625    1.0133   24.4989 N   0  0  3  0  0  0  0  0  0  0  0  0
    8.8314    1.0394   21.0790 O   0  0  0  0  0  0  0  0  0  0  0  0
    6.4559    2.2241   24.9990 O   0  0  0  0  0  0  0  0  0  0  0  0
    8.6119    3.1278   25.9583 O   0  0  0  0  0  0  0  0  0  0  0  0
    3.4764    1.0564   23.6489 F   0  0  0  0  0  0  0  0  0  0  0  0
    2.0643    2.5147   22.8618 F   0  0  0  0  0  0  0  0  0  0  0  0
    7.7725    2.0180   25.5623 S   0  0  0  0  0  0  0  0  0  0  0  0
   13.4285   -2.1410   21.1076 Cl  0  0  0  0  0  0  0  0  0  0  0  0
    3.3431    2.9748   18.3360 H   0  0  0  0  0  0  0  0  0  0  0  0
   12.5038    0.5986   24.9731 H   0  0  0  0  0  0  0  0  0  0  0  0
    2.5422    3.3527   20.6266 H   0  0  0  0  0  0  0  0  0  0  0  0
   13.9925   -0.5165   23.3773 H   0  0  0  0  0  0  0  0  0  0  0  0
    5.3189    0.4834   22.1514 H   0  0  0  0  0  0  0  0  0  0  0  0
   10.6052   -2.0169   21.2237 H   0  0  0  0  0  0  0  0  0  0  0  0
    4.9144    1.7509   16.7472 H   0  0  0  0  0  0  0  0  0  0  0  0
    7.6460   -0.9759   18.1038 H   0  0  0  0  0  0  0  0  0  0  0  0
    9.7866   -0.1187   25.8304 H   0  0  0  0  0  0  0  0  0  0  0  0
   10.4816    1.4567   25.3600 H   0  0  0  0  0  0  0  0  0  0  0  0
    5.4358    0.5518   29.6847 H   0  0  0  0  0  0  0  0  0  0  0  0
    6.1481   -0.7331   28.6181 H   0  0  0  0  0  0  0  0  0  0  0  0
    4.9448    0.2375   26.6469 H   0  0  0  0  0  0  0  0  0  0  0  0
    4.2331    1.5218   27.7145 H   0  0  0  0  0  0  0  0  0  0  0  0
    7.5167   -2.5459   23.3332 H   0  0  0  0  0  0  0  0  0  0  0  0
    8.7666   -2.9029   22.1426 H   0  0  0  0  0  0  0  0  0  0  0  0
    7.0601   -2.7250   20.5715 H   0  0  0  0  0  0  0  0  0  0  0  0
    5.9530   -1.9963   21.7709 H   0  0  0  0  0  0  0  0  0  0  0  0
    6.8882    0.2643   23.5640 H   0  0  0  0  0  0  0  0  0  0  0  0
    7.6667   -0.8657   24.6729 H   0  0  0  0  0  0  0  0  0  0  0  0
    7.4436   -0.0759   26.5599 H   0  0  0  0  0  0  0  0  0  0  0  0
    8.5609    0.9485   27.4918 H   0  0  0  0  0  0  0  0  0  0  0  0
    3.9189    2.9794   23.4066 H   0  0  0  0  0  0  0  0  0  0  0  0
  1 24  1  0  0  0  0
  1 28  3  0  0  0  0
  2  4  2  0  0  0  0
  2 10  1  0  0  0  0
  3  5  2  0  0  0  0
  3 12  1  0  0  0  0
  4 14  1  0  0  0  0
  5 16  1  0  0  0  0
  6 11  1  0  0  0  0
  6 14  2  0  0  0  0
  7 13  1  0  0  0  0
  7 16  2  0  0  0  0
  8 10  2  0  0  0  0
  8 29  1  0  0  0  0
  9 15  1  0  0  0  0
  9 29  2  0  0  0  0
 10 11  1  0  0  0  0
 11 15  2  0  0  0  0
 12 13  2  0  0  0  0
 12 18  1  0  0  0  0
 13 25  1  0  0  0  0
 14 27  1  0  0  0  0
 15 30  1  0  0  0  0
 16 38  1  0  0  0  0
 17 25  1  0  0  0  0
 17 30  1  0  0  0  0
 17 32  2  0  0  0  0
 18 31  1  0  0  0  0
 19 20  1  0  0  0  0
 19 24  1  0  0  0  0
 20 24  1  0  0  0  0
 21 22  1  0  0  0  0
 21 25  1  0  0  0  0
 22 30  1  0  0  0  0
 23 25  1  0  0  0  0
 23 31  1  0  0  0  0
 24 26  1  0  0  0  0
 26 37  1  0  0  0  0
 27 35  1  0  0  0  0
 27 36  1  0  0  0  0
 31 37  1  0  0  0  0
 33 37  2  0  0  0  0
 34 37  2  0  0  0  0
  2 39  1  0  0  0  0
  3 40  1  0  0  0  0
  4 41  1  0  0  0  0
  5 42  1  0  0  0  0
  6 43  1  0  0  0  0
  7 44  1  0  0  0  0
  8 45  1  0  0  0  0
  9 46  1  0  0  0  0
 18 47  1  0  0  0  0
 18 48  1  0  0  0  0
 19 49  1  0  0  0  0
 19 50  1  0  0  0  0
 20 51  1  0  0  0  0
 20 52  1  0  0  0  0
 21 53  1  0  0  0  0
 21 54  1  0  0  0  0
 22 55  1  0  0  0  0
 22 56  1  0  0  0  0
 23 57  1  0  0  0  0
 23 58  1  0  0  0  0
 26 59  1  0  0  0  0
 26 60  1  0  0  0  0
 27 61  1  0  0  0  0
M  END
> <scaffold>
tetrahydroisoquinoline-5spiro-isoquinoline

> <compound>
EDJ-MED-5cd3920d-2

> <compound_smiles>
c1cc2cncc(c2cc1C(F)F)N3CCC4(C3=O)CN(Cc5c4cc(cc5)Cl)S(=O)(=O)CC6(CC6)C#N

> <enantiomer_smiles>
c1cc2cncc(c2cc1C(F)F)N3CC[C@]4(C3=O)C[N@](Cc5c4cc(cc5)Cl)S(=O)(=O)CC6(CC6)C#N

> <clash_score>
0

> <docking_score>
3.4028234663852886e+38

> <overlap_score>
0.978488564491272

> <MMFF_internal_energy>
128.8262814010365

> <docked_smiles>
c1cc2cncc(c2cc1C(F)F)N3CC[C@]4(C3=O)C[N@](Cc5c4cc(cc5)Cl)S(=O)(=O)CC6(CC6)C#N

$$$$
MAT-POS-853c0ffa-16_1
  -OEChem-01042202313D

 67 72  0     1  0  0  0  0  0999 V2000
    4.8986    1.0232   21.2985 C   0  0  0  0  0  0  0  0  0  0  0  0
   12.0781    0.0316   24.1532 C   0  0  0  0  0  0  0  0  0  0  0  0
    3.8974    1.9290   21.5048 C   0  0  0  0  0  0  0  0  0  0  0  0
   12.9147   -0.6032   23.2559 C   0  0  0  0  0  0  0  0  0  0  0  0
    3.7877    2.4205   19.1658 C   0  0  0  0  0  0  0  0  0  0  0  0
   11.0005   -1.4332   22.0435 C   0  0  0  0  0  0  0  0  0  0  0  0
    5.3288    1.2339   17.6062 C   0  0  0  0  0  0  0  0  0  0  0  0
    6.8449   -0.2893   18.3747 C   0  0  0  0  0  0  0  0  0  0  0  0
    5.3995    0.7732   19.9944 C   0  0  0  0  0  0  0  0  0  0  0  0
    4.8238    1.4906   18.9051 C   0  0  0  0  0  0  0  0  0  0  0  0
   10.7056   -0.0626   23.9890 C   0  0  0  0  0  0  0  0  0  0  0  0
   10.1421   -0.7766   22.9242 C   0  0  0  0  0  0  0  0  0  0  0  0
    6.4452   -0.1472   19.6975 C   0  0  0  0  0  0  0  0  0  0  0  0
    3.3444    2.6278   20.4409 C   0  0  0  0  0  0  0  0  0  0  0  0
   12.3697   -1.3298   22.2224 C   0  0  0  0  0  0  0  0  0  0  0  0
    8.2504    0.0168   21.4265 C   0  0  0  0  0  0  0  0  0  0  0  0
    9.9496    0.5589   24.9527 C   0  0  0  0  0  0  0  0  0  0  0  0
    6.9477    1.0432   29.4808 C   0  0  0  0  0  0  0  0  0  0  0  0
    7.5627    2.3715   29.1372 C   0  0  0  0  0  0  0  0  0  0  0  0
    8.0155   -2.1541   22.4325 C   0  0  0  0  0  0  0  0  0  0  0  0
    6.9880   -1.9367   21.3575 C   0  0  0  0  0  0  0  0  0  0  0  0
    7.8737   -0.1194   23.8825 C   0  0  0  0  0  0  0  0  0  0  0  0
    8.6253   -0.7606   22.6923 C   0  0  3  0  0  0  0  0  0  0  0  0
    6.8379    1.5828   28.0804 C   0  0  0  0  0  0  0  0  0  0  0  0
    4.5680    1.0542   27.7790 C   0  0  0  0  0  0  0  0  0  0  0  0
    0.5640    2.8387   20.6224 C   0  0  0  0  0  0  0  0  0  0  0  0
    7.6088    0.9304   26.9546 C   0  0  0  0  0  0  0  0  0  0  0  0
    6.3072    0.3768   17.3417 N   0  0  0  0  0  0  0  0  0  0  0  0
    7.2305   -0.6898   20.7785 N   0  0  0  0  0  0  0  0  0  0  0  0
    8.6625    1.0133   24.4989 N   0  0  3  0  0  0  0  0  0  0  0  0
    8.8314    1.0394   21.0790 O   0  0  0  0  0  0  0  0  0  0  0  0
    2.1938    4.2339   22.1297 O   0  0  0  0  0  0  0  0  0  0  0  0
    2.0373    4.7678   19.6728 O   0  0  0  0  0  0  0  0  0  0  0  0
    6.4559    2.2241   24.9990 O   0  0  0  0  0  0  0  0  0  0  0  0
    8.6119    3.1278   25.9583 O   0  0  0  0  0  0  0  0  0  0  0  0
    5.5439    2.0759   27.6956 O   0  0  0  0  0  0  0  0  0  0  0  0
    2.0628    3.7877   20.7500 S   0  0  0  0  0  0  0  0  0  0  0  0
    7.7725    2.0180   25.5623 S   0  0  0  0  0  0  0  0  0  0  0  0
   13.4285   -2.1410   21.1076 Cl  0  0  0  0  0  0  0  0  0  0  0  0
    5.3127    0.4890   22.1568 H   0  0  0  0  0  0  0  0  0  0  0  0
   12.5038    0.5986   24.9731 H   0  0  0  0  0  0  0  0  0  0  0  0
    3.5274    2.1069   22.5215 H   0  0  0  0  0  0  0  0  0  0  0  0
   13.9925   -0.5165   23.3773 H   0  0  0  0  0  0  0  0  0  0  0  0
    3.3498    2.9707   18.3288 H   0  0  0  0  0  0  0  0  0  0  0  0
   10.6052   -2.0169   21.2237 H   0  0  0  0  0  0  0  0  0  0  0  0
    4.9155    1.7517   16.7470 H   0  0  0  0  0  0  0  0  0  0  0  0
    7.6461   -0.9756   18.1037 H   0  0  0  0  0  0  0  0  0  0  0  0
    9.7866   -0.1187   25.8304 H   0  0  0  0  0  0  0  0  0  0  0  0
   10.4816    1.4567   25.3600 H   0  0  0  0  0  0  0  0  0  0  0  0
    7.6181    0.2123   29.6648 H   0  0  0  0  0  0  0  0  0  0  0  0
    6.0602    1.0451   30.1019 H   0  0  0  0  0  0  0  0  0  0  0  0
    7.0870    3.2628   29.5287 H   0  0  0  0  0  0  0  0  0  0  0  0
    8.6436    2.4274   29.0913 H   0  0  0  0  0  0  0  0  0  0  0  0
    7.5167   -2.5459   23.3332 H   0  0  0  0  0  0  0  0  0  0  0  0
    8.7666   -2.9029   22.1426 H   0  0  0  0  0  0  0  0  0  0  0  0
    7.0601   -2.7250   20.5715 H   0  0  0  0  0  0  0  0  0  0  0  0
    5.9530   -1.9963   21.7709 H   0  0  0  0  0  0  0  0  0  0  0  0
    6.8882    0.2643   23.5640 H   0  0  0  0  0  0  0  0  0  0  0  0
    7.6667   -0.8657   24.6729 H   0  0  0  0  0  0  0  0  0  0  0  0
    3.5951    1.4535   27.4821 H   0  0  0  0  0  0  0  0  0  0  0  0
    4.5215    0.6763   28.8035 H   0  0  0  0  0  0  0  0  0  0  0  0
    4.8465    0.2407   27.1050 H   0  0  0  0  0  0  0  0  0  0  0  0
   -0.2812    3.5029   20.8096 H   0  0  0  0  0  0  0  0  0  0  0  0
    0.5060    2.4202   19.6165 H   0  0  0  0  0  0  0  0  0  0  0  0
    0.5966    2.0420   21.3670 H   0  0  0  0  0  0  0  0  0  0  0  0
    7.0989    0.0296   26.6018 H   0  0  0  0  0  0  0  0  0  0  0  0
    8.6192    0.6630   27.2756 H   0  0  0  0  0  0  0  0  0  0  0  0
  1  3  2  0  0  0  0
  1  9  1  0  0  0  0
  2  4  2  0  0  0  0
  2 11  1  0  0  0  0
  3 14  1  0  0  0  0
  4 15  1  0  0  0  0
  5 10  1  0  0  0  0
  5 14  2  0  0  0  0
  6 12  1  0  0  0  0
  6 15  2  0  0  0  0
  7 10  2  0  0  0  0
  7 28  1  0  0  0  0
  8 13  1  0  0  0  0
  8 28  2  0  0  0  0
  9 10  1  0  0  0  0
  9 13  2  0  0  0  0
 11 12  2  0  0  0  0
 11 17  1  0  0  0  0
 12 23  1  0  0  0  0
 13 29  1  0  0  0  0
 14 37  1  0  0  0  0
 15 39  1  0  0  0  0
 16 23  1  0  0  0  0
 16 29  1  0  0  0  0
 16 31  2  0  0  0  0
 17 30  1  0  0  0  0
 18 19  1  0  0  0  0
 18 24  1  0  0  0  0
 19 24  1  0  0  0  0
 20 21  1  0  0  0  0
 20 23  1  0  0  0  0
 21 29  1  0  0  0  0
 22 23  1  0  0  0  0
 22 30  1  0  0  0  0
 24 27  1  0  0  0  0
 24 36  1  0  0  0  0
 25 36  1  0  0  0  0
 26 37  1  0  0  0  0
 27 38  1  0  0  0  0
 30 38  1  0  0  0  0
 32 37  2  0  0  0  0
 33 37  2  0  0  0  0
 34 38  2  0  0  0  0
 35 38  2  0  0  0  0
  1 40  1  0  0  0  0
  2 41  1  0  0  0  0
  3 42  1  0  0  0  0
  4 43  1  0  0  0  0
  5 44  1  0  0  0  0
  6 45  1  0  0  0  0
  7 46  1  0  0  0  0
  8 47  1  0  0  0  0
 17 48  1  0  0  0  0
 17 49  1  0  0  0  0
 18 50  1  0  0  0  0
 18 51  1  0  0  0  0
 19 52  1  0  0  0  0
 19 53  1  0  0  0  0
 20 54  1  0  0  0  0
 20 55  1  0  0  0  0
 21 56  1  0  0  0  0
 21 57  1  0  0  0  0
 22 58  1  0  0  0  0
 22 59  1  0  0  0  0
 25 60  1  0  0  0  0
 25 61  1  0  0  0  0
 25 62  1  0  0  0  0
 26 63  1  0  0  0  0
 26 64  1  0  0  0  0
 26 65  1  0  0  0  0
 27 66  1  0  0  0  0
 27 67  1  0  0  0  0
M  END
> <scaffold>
tetrahydroisoquinoline-5spiro-isoquinoline

> <compound>
MAT-POS-853c0ffa-16

> <compound_smiles>
COC1(CC1)CS(=O)(=O)N2Cc3ccc(cc3C4(C2)CCN(C4=O)c5cncc6c5ccc(c6)S(=O)(=O)C)Cl

> <enantiomer_smiles>
COC1(CC1)CS(=O)(=O)[N@]2Cc3ccc(cc3[C@@]4(C2)CCN(C4=O)c5cncc6c5ccc(c6)S(=O)(=O)C)Cl

> <clash_score>
0.711058701657536

> <docking_score>
3.4028234663852886e+38

> <overlap_score>
0.9739798903465271

> <MMFF_internal_energy>
153.29616935594714

> <docked_smiles>
COC1(CC1)CS(=O)(=O)[N@]2Cc3ccc(cc3[C@@]4(C2)CCN(C4=O)c5cncc6c5ccc(c6)S(=O)(=O)C)Cl

$$$$
MAT-POS-853c0ffa-11_1
  -OEChem-01042202313D

 68 73  0     1  0  0  0  0  0999 V2000
    5.4996    1.9996   27.7504 C   0  0  0  0  0  0  0  0  0  0  0  0
    3.7877    2.4205   19.1658 C   0  0  0  0  0  0  0  0  0  0  0  0
   12.0781    0.0316   24.1532 C   0  0  0  0  0  0  0  0  0  0  0  0
    3.3444    2.6278   20.4409 C   0  0  0  0  0  0  0  0  0  0  0  0
   12.9147   -0.6032   23.2559 C   0  0  0  0  0  0  0  0  0  0  0  0
    4.8986    1.0232   21.2985 C   0  0  0  0  0  0  0  0  0  0  0  0
   11.0005   -1.4332   22.0435 C   0  0  0  0  0  0  0  0  0  0  0  0
    5.3288    1.2339   17.6062 C   0  0  0  0  0  0  0  0  0  0  0  0
    6.8449   -0.2893   18.3747 C   0  0  0  0  0  0  0  0  0  0  0  0
    4.8238    1.4906   18.9051 C   0  0  0  0  0  0  0  0  0  0  0  0
    5.3995    0.7732   19.9944 C   0  0  0  0  0  0  0  0  0  0  0  0
   10.7056   -0.0626   23.9890 C   0  0  0  0  0  0  0  0  0  0  0  0
   10.1421   -0.7766   22.9242 C   0  0  0  0  0  0  0  0  0  0  0  0
    3.8974    1.9290   21.5048 C   0  0  0  0  0  0  0  0  0  0  0  0
    6.4452   -0.1472   19.6975 C   0  0  0  0  0  0  0  0  0  0  0  0
   12.3697   -1.3298   22.2224 C   0  0  0  0  0  0  0  0  0  0  0  0
    8.2504    0.0168   21.4265 C   0  0  0  0  0  0  0  0  0  0  0  0
    9.9496    0.5589   24.9527 C   0  0  0  0  0  0  0  0  0  0  0  0
    7.6043    2.4328   29.0689 C   0  0  0  0  0  0  0  0  0  0  0  0
    7.0823    1.0906   29.4894 C   0  0  0  0  0  0  0  0  0  0  0  0
    8.0155   -2.1541   22.4325 C   0  0  0  0  0  0  0  0  0  0  0  0
    6.9880   -1.9367   21.3575 C   0  0  0  0  0  0  0  0  0  0  0  0
    7.8737   -0.1194   23.8825 C   0  0  0  0  0  0  0  0  0  0  0  0
    6.8379    1.5828   28.0804 C   0  0  0  0  0  0  0  0  0  0  0  0
    8.6253   -0.7606   22.6923 C   0  0  3  0  0  0  0  0  0  0  0  0
    1.8743    1.8831   23.1000 C   0  0  0  0  0  0  0  0  0  0  0  0
    3.6646    3.6383   23.3204 C   0  0  0  0  0  0  0  0  0  0  0  0
    7.6088    0.9304   26.9546 C   0  0  0  0  0  0  0  0  0  0  0  0
    3.3812    2.1809   22.8921 C   0  0  0  0  0  0  0  0  0  0  0  0
    4.4214    2.3356   27.4845 N   0  0  0  0  0  0  0  0  0  0  0  0
    6.3072    0.3768   17.3417 N   0  0  0  0  0  0  0  0  0  0  0  0
    7.2305   -0.6898   20.7785 N   0  0  0  0  0  0  0  0  0  0  0  0
    8.6625    1.0133   24.4989 N   0  0  3  0  0  0  0  0  0  0  0  0
    8.8314    1.0394   21.0790 O   0  0  0  0  0  0  0  0  0  0  0  0
    6.4559    2.2241   24.9990 O   0  0  0  0  0  0  0  0  0  0  0  0
    8.6119    3.1278   25.9583 O   0  0  0  0  0  0  0  0  0  0  0  0
    4.0602    1.3287   23.8428 O   0  0  0  0  0  0  0  0  0  0  0  0
    7.7725    2.0180   25.5623 S   0  0  0  0  0  0  0  0  0  0  0  0
   13.4285   -2.1410   21.1076 Cl  0  0  0  0  0  0  0  0  0  0  0  0
    3.3431    2.9748   18.3360 H   0  0  0  0  0  0  0  0  0  0  0  0
   12.5038    0.5986   24.9731 H   0  0  0  0  0  0  0  0  0  0  0  0
    2.5422    3.3527   20.6266 H   0  0  0  0  0  0  0  0  0  0  0  0
   13.9925   -0.5165   23.3773 H   0  0  0  0  0  0  0  0  0  0  0  0
    5.3189    0.4834   22.1514 H   0  0  0  0  0  0  0  0  0  0  0  0
   10.6052   -2.0169   21.2237 H   0  0  0  0  0  0  0  0  0  0  0  0
    4.9144    1.7509   16.7472 H   0  0  0  0  0  0  0  0  0  0  0  0
    7.6460   -0.9759   18.1038 H   0  0  0  0  0  0  0  0  0  0  0  0
    9.7866   -0.1187   25.8304 H   0  0  0  0  0  0  0  0  0  0  0  0
   10.4816    1.4567   25.3600 H   0  0  0  0  0  0  0  0  0  0  0  0
    7.1266    3.3111   29.4880 H   0  0  0  0  0  0  0  0  0  0  0  0
    8.6755    2.5380   28.9408 H   0  0  0  0  0  0  0  0  0  0  0  0
    7.8042    0.2970   29.6439 H   0  0  0  0  0  0  0  0  0  0  0  0
    6.2558    1.0713   30.1907 H   0  0  0  0  0  0  0  0  0  0  0  0
    7.5167   -2.5459   23.3332 H   0  0  0  0  0  0  0  0  0  0  0  0
    8.7666   -2.9029   22.1426 H   0  0  0  0  0  0  0  0  0  0  0  0
    7.0601   -2.7250   20.5715 H   0  0  0  0  0  0  0  0  0  0  0  0
    5.9530   -1.9963   21.7709 H   0  0  0  0  0  0  0  0  0  0  0  0
    6.8882    0.2643   23.5640 H   0  0  0  0  0  0  0  0  0  0  0  0
    7.6667   -0.8657   24.6729 H   0  0  0  0  0  0  0  0  0  0  0  0
    1.5542    2.0851   24.1294 H   0  0  0  0  0  0  0  0  0  0  0  0
    1.2404    2.4783   22.4352 H   0  0  0  0  0  0  0  0  0  0  0  0
    1.6695    0.8219   22.9153 H   0  0  0  0  0  0  0  0  0  0  0  0
    3.3022    3.8494   24.3332 H   0  0  0  0  0  0  0  0  0  0  0  0
    3.1983    4.3518   22.6324 H   0  0  0  0  0  0  0  0  0  0  0  0
    4.7439    3.8318   23.3327 H   0  0  0  0  0  0  0  0  0  0  0  0
    7.0989    0.0296   26.6018 H   0  0  0  0  0  0  0  0  0  0  0  0
    8.6192    0.6630   27.2756 H   0  0  0  0  0  0  0  0  0  0  0  0
    3.6813    1.5509   24.7009 H   0  0  0  0  0  0  0  0  0  0  0  0
  1 24  1  0  0  0  0
  1 30  3  0  0  0  0
  2  4  2  0  0  0  0
  2 10  1  0  0  0  0
  3  5  2  0  0  0  0
  3 12  1  0  0  0  0
  4 14  1  0  0  0  0
  5 16  1  0  0  0  0
  6 11  1  0  0  0  0
  6 14  2  0  0  0  0
  7 13  1  0  0  0  0
  7 16  2  0  0  0  0
  8 10  2  0  0  0  0
  8 31  1  0  0  0  0
  9 15  1  0  0  0  0
  9 31  2  0  0  0  0
 10 11  1  0  0  0  0
 11 15  2  0  0  0  0
 12 13  2  0  0  0  0
 12 18  1  0  0  0  0
 13 25  1  0  0  0  0
 14 29  1  0  0  0  0
 15 32  1  0  0  0  0
 16 39  1  0  0  0  0
 17 25  1  0  0  0  0
 17 32  1  0  0  0  0
 17 34  2  0  0  0  0
 18 33  1  0  0  0  0
 19 20  1  0  0  0  0
 19 24  1  0  0  0  0
 20 24  1  0  0  0  0
 21 22  1  0  0  0  0
 21 25  1  0  0  0  0
 22 32  1  0  0  0  0
 23 25  1  0  0  0  0
 23 33  1  0  0  0  0
 24 28  1  0  0  0  0
 26 29  1  0  0  0  0
 27 29  1  0  0  0  0
 28 38  1  0  0  0  0
 29 37  1  0  0  0  0
 33 38  1  0  0  0  0
 35 38  2  0  0  0  0
 36 38  2  0  0  0  0
  2 40  1  0  0  0  0
  3 41  1  0  0  0  0
  4 42  1  0  0  0  0
  5 43  1  0  0  0  0
  6 44  1  0  0  0  0
  7 45  1  0  0  0  0
  8 46  1  0  0  0  0
  9 47  1  0  0  0  0
 18 48  1  0  0  0  0
 18 49  1  0  0  0  0
 19 50  1  0  0  0  0
 19 51  1  0  0  0  0
 20 52  1  0  0  0  0
 20 53  1  0  0  0  0
 21 54  1  0  0  0  0
 21 55  1  0  0  0  0
 22 56  1  0  0  0  0
 22 57  1  0  0  0  0
 23 58  1  0  0  0  0
 23 59  1  0  0  0  0
 26 60  1  0  0  0  0
 26 61  1  0  0  0  0
 26 62  1  0  0  0  0
 27 63  1  0  0  0  0
 27 64  1  0  0  0  0
 27 65  1  0  0  0  0
 28 66  1  0  0  0  0
 28 67  1  0  0  0  0
 37 68  1  0  0  0  0
M  END
> <scaffold>
tetrahydroisoquinoline-5spiro-isoquinoline

> <compound>
MAT-POS-853c0ffa-11

> <compound_smiles>
CC(C)(c1ccc2cncc(c2c1)N3CCC4(C3=O)CN(Cc5c4cc(cc5)Cl)S(=O)(=O)CC6(CC6)C#N)O

> <enantiomer_smiles>
CC(C)(c1ccc2cncc(c2c1)N3CC[C@]4(C3=O)C[N@](Cc5c4cc(cc5)Cl)S(=O)(=O)CC6(CC6)C#N)O

> <clash_score>
0

> <docking_score>
3.4028234663852886e+38

> <overlap_score>
0.9775438904762268

> <MMFF_internal_energy>
127.27874204354632

> <docked_smiles>
CC(C)(c1ccc2cncc(c2c1)N3CC[C@]4(C3=O)C[N@](Cc5c4cc(cc5)Cl)S(=O)(=O)CC6(CC6)C#N)O

$$$$
LUO-POS-eaf50f21-4_1
  -OEChem-01042202313D

 64 69  0     1  0  0  0  0  0999 V2000
    6.5921    2.6288   28.4429 C   0  0  0  0  0  0  0  0  0  0  0  0
    3.3444    2.6278   20.4409 C   0  0  0  0  0  0  0  0  0  0  0  0
    3.8974    1.9290   21.5048 C   0  0  0  0  0  0  0  0  0  0  0  0
    3.7877    2.4205   19.1658 C   0  0  0  0  0  0  0  0  0  0  0  0
    4.8986    1.0232   21.2985 C   0  0  0  0  0  0  0  0  0  0  0  0
   12.0781    0.0316   24.1532 C   0  0  0  0  0  0  0  0  0  0  0  0
   12.9147   -0.6032   23.2559 C   0  0  0  0  0  0  0  0  0  0  0  0
   11.0005   -1.4332   22.0435 C   0  0  0  0  0  0  0  0  0  0  0  0
    5.3288    1.2339   17.6062 C   0  0  0  0  0  0  0  0  0  0  0  0
    6.8449   -0.2893   18.3747 C   0  0  0  0  0  0  0  0  0  0  0  0
    4.8238    1.4906   18.9051 C   0  0  0  0  0  0  0  0  0  0  0  0
    5.3995    0.7732   19.9944 C   0  0  0  0  0  0  0  0  0  0  0  0
   10.7056   -0.0626   23.9890 C   0  0  0  0  0  0  0  0  0  0  0  0
   10.1421   -0.7766   22.9242 C   0  0  0  0  0  0  0  0  0  0  0  0
    6.4452   -0.1472   19.6975 C   0  0  0  0  0  0  0  0  0  0  0  0
   12.3697   -1.3298   22.2224 C   0  0  0  0  0  0  0  0  0  0  0  0
    8.2504    0.0168   21.4265 C   0  0  0  0  0  0  0  0  0  0  0  0
    6.9880   -1.9367   21.3575 C   0  0  0  0  0  0  0  0  0  0  0  0
    9.9496    0.5589   24.9527 C   0  0  0  0  0  0  0  0  0  0  0  0
    5.8053    0.2461   28.6874 C   0  0  0  0  0  0  0  0  0  0  0  0
    5.0815    0.8371   27.5137 C   0  0  0  0  0  0  0  0  0  0  0  0
    7.8737   -0.1194   23.8825 C   0  0  0  0  0  0  0  0  0  0  0  0
    6.4735    1.3187   27.8568 C   0  0  0  0  0  0  0  0  0  0  0  0
    8.6253   -0.7606   22.6923 C   0  0  3  0  0  0  0  0  0  0  0  0
    5.1147   -2.7496   19.9948 C   0  0  0  0  0  0  0  0  0  0  0  0
    6.2092   -4.2052   21.6696 C   0  0  0  0  0  0  0  0  0  0  0  0
    7.6121    0.9102   26.9491 C   0  0  0  0  0  0  0  0  0  0  0  0
    6.6878    3.6842   28.9152 N   0  0  0  0  0  0  0  0  0  0  0  0
    6.3072    0.3768   17.3417 N   0  0  0  0  0  0  0  0  0  0  0  0
    7.2305   -0.6898   20.7785 N   0  0  0  0  0  0  0  0  0  0  0  0
    8.6625    1.0133   24.4989 N   0  0  3  0  0  0  0  0  0  0  0  0
    8.0155   -2.1541   22.4325 N   0  3  0  0  0  0  0  0  0  0  0  0
    6.0840   -2.8872   21.0693 N   0  0  0  0  0  0  0  0  0  0  0  0
    8.7499    1.0989   21.0907 O   0  0  0  0  0  0  0  0  0  0  0  0
    6.4545    2.2081   24.9990 O   0  0  0  0  0  0  0  0  0  0  0  0
    8.5954    3.1275   25.9771 O   0  0  0  0  0  0  0  0  0  0  0  0
    7.7702    2.0122   25.5675 S   0  0  0  0  0  0  0  0  0  0  0  0
   13.4283   -2.1411   21.1076 Cl  0  0  0  0  0  0  0  0  0  0  0  0
    2.5446    3.3512   20.6368 H   0  0  0  0  0  0  0  0  0  0  0  0
    3.5197    2.1139   22.5168 H   0  0  0  0  0  0  0  0  0  0  0  0
    3.3421    2.9744   18.3362 H   0  0  0  0  0  0  0  0  0  0  0  0
    5.3160    0.4868   22.1541 H   0  0  0  0  0  0  0  0  0  0  0  0
   12.5031    0.6010   24.9724 H   0  0  0  0  0  0  0  0  0  0  0  0
   13.9925   -0.5153   23.3762 H   0  0  0  0  0  0  0  0  0  0  0  0
   10.6052   -2.0179   21.2236 H   0  0  0  0  0  0  0  0  0  0  0  0
    4.9145    1.7511   16.7473 H   0  0  0  0  0  0  0  0  0  0  0  0
    7.6462   -0.9771   18.1096 H   0  0  0  0  0  0  0  0  0  0  0  0
    9.7881   -0.1180   25.8321 H   0  0  0  0  0  0  0  0  0  0  0  0
   10.4825    1.4574   25.3593 H   0  0  0  0  0  0  0  0  0  0  0  0
    5.4442    0.4975   29.6783 H   0  0  0  0  0  0  0  0  0  0  0  0
    6.1593   -0.7744   28.5979 H   0  0  0  0  0  0  0  0  0  0  0  0
    4.9499    0.2118   26.6382 H   0  0  0  0  0  0  0  0  0  0  0  0
    4.2356    1.4831   27.7196 H   0  0  0  0  0  0  0  0  0  0  0  0
    6.8973    0.2671   23.5401 H   0  0  0  0  0  0  0  0  0  0  0  0
    7.6613   -0.8673   24.6682 H   0  0  0  0  0  0  0  0  0  0  0  0
    5.5410   -3.1482   19.0624 H   0  0  0  0  0  0  0  0  0  0  0  0
    4.2029   -3.3096   20.2498 H   0  0  0  0  0  0  0  0  0  0  0  0
    4.8663   -1.6866   19.8592 H   0  0  0  0  0  0  0  0  0  0  0  0
    5.6622   -4.2276   22.6237 H   0  0  0  0  0  0  0  0  0  0  0  0
    5.7890   -4.9597   20.9883 H   0  0  0  0  0  0  0  0  0  0  0  0
    7.2715   -4.4259   21.8509 H   0  0  0  0  0  0  0  0  0  0  0  0
    7.4496   -0.0926   26.5446 H   0  0  0  0  0  0  0  0  0  0  0  0
    8.5649    0.9262   27.4850 H   0  0  0  0  0  0  0  0  0  0  0  0
    8.2317   -2.9937   22.8027 H   0  0  0  0  0  0  0  0  0  0  0  0
  1 23  1  0  0  0  0
  1 28  3  0  0  0  0
  2  3  2  0  0  0  0
  2  4  1  0  0  0  0
  3  5  1  0  0  0  0
  4 11  2  0  0  0  0
  5 12  2  0  0  0  0
  6  7  2  0  0  0  0
  6 13  1  0  0  0  0
  7 16  1  0  0  0  0
  8 14  1  0  0  0  0
  8 16  2  0  0  0  0
  9 11  1  0  0  0  0
  9 29  2  0  0  0  0
 10 15  2  0  0  0  0
 10 29  1  0  0  0  0
 11 12  1  0  0  0  0
 12 15  1  0  0  0  0
 13 14  2  0  0  0  0
 13 19  1  0  0  0  0
 14 24  1  0  0  0  0
 15 30  1  0  0  0  0
 16 38  1  0  0  0  0
 17 24  1  0  0  0  0
 17 30  1  0  0  0  0
 17 34  2  0  0  0  0
 18 30  1  0  0  0  0
 18 32  2  0  0  0  0
 18 33  1  0  0  0  0
 19 31  1  0  0  0  0
 20 21  1  0  0  0  0
 20 23  1  0  0  0  0
 21 23  1  0  0  0  0
 22 24  1  0  0  0  0
 22 31  1  0  0  0  0
 23 27  1  0  0  0  0
 24 32  1  0  0  0  0
 25 33  1  0  0  0  0
 26 33  1  0  0  0  0
 27 37  1  0  0  0  0
 31 37  1  0  0  0  0
 35 37  2  0  0  0  0
 36 37  2  0  0  0  0
  2 39  1  0  0  0  0
  3 40  1  0  0  0  0
  4 41  1  0  0  0  0
  5 42  1  0  0  0  0
  6 43  1  0  0  0  0
  7 44  1  0  0  0  0
  8 45  1  0  0  0  0
  9 46  1  0  0  0  0
 10 47  1  0  0  0  0
 19 48  1  0  0  0  0
 19 49  1  0  0  0  0
 20 50  1  0  0  0  0
 20 51  1  0  0  0  0
 21 52  1  0  0  0  0
 21 53  1  0  0  0  0
 22 54  1  0  0  0  0
 22 55  1  0  0  0  0
 25 56  1  0  0  0  0
 25 57  1  0  0  0  0
 25 58  1  0  0  0  0
 26 59  1  0  0  0  0
 26 60  1  0  0  0  0
 26 61  1  0  0  0  0
 27 62  1  0  0  0  0
 27 63  1  0  0  0  0
 32 64  1  0  0  0  0
M  CHG  1  32   1
M  END
> <scaffold>
tetrahydroisoquinoline-5spiro-isoquinoline

> <compound>
LUO-POS-eaf50f21-4

> <compound_smiles>
CN(C)C1=NC2(CN(Cc3c2cc(cc3)Cl)S(=O)(=O)CC4(CC4)C#N)C(=O)N1c5cncc6c5cccc6

> <enantiomer_smiles>
CN(C)C1=N[C@@]2(C[N@](Cc3c2cc(cc3)Cl)S(=O)(=O)CC4(CC4)C#N)C(=O)N1c5cncc6c5cccc6

> <clash_score>
0

> <docking_score>
3.4028234663852886e+38

> <overlap_score>
1.0

> <MMFF_internal_energy>
52.3271504667214

> <docked_smiles>
CN(C)C1=[NH+][C@@]2(C[N@](Cc3c2cc(cc3)Cl)S(=O)(=O)CC4(CC4)C#N)C(=O)N1c5cncc6c5cccc6

$$$$
LUO-POS-eaf50f21-5_1
  -OEChem-01042202313D

 64 69  0     1  0  0  0  0  0999 V2000
    8.6677    5.6495   23.5630 C   0  0  0  0  0  0  0  0  0  0  0  0
    3.3444    2.6278   20.4409 C   0  0  0  0  0  0  0  0  0  0  0  0
    3.8974    1.9290   21.5048 C   0  0  0  0  0  0  0  0  0  0  0  0
    3.7877    2.4205   19.1658 C   0  0  0  0  0  0  0  0  0  0  0  0
    4.8986    1.0232   21.2985 C   0  0  0  0  0  0  0  0  0  0  0  0
   12.0781    0.0316   24.1532 C   0  0  0  0  0  0  0  0  0  0  0  0
   12.9147   -0.6032   23.2559 C   0  0  0  0  0  0  0  0  0  0  0  0
   11.0005   -1.4332   22.0435 C   0  0  0  0  0  0  0  0  0  0  0  0
    5.3288    1.2339   17.6062 C   0  0  0  0  0  0  0  0  0  0  0  0
    6.8449   -0.2893   18.3747 C   0  0  0  0  0  0  0  0  0  0  0  0
    4.8238    1.4906   18.9051 C   0  0  0  0  0  0  0  0  0  0  0  0
    5.3995    0.7732   19.9944 C   0  0  0  0  0  0  0  0  0  0  0  0
   10.7056   -0.0626   23.9890 C   0  0  0  0  0  0  0  0  0  0  0  0
   10.1421   -0.7766   22.9242 C   0  0  0  0  0  0  0  0  0  0  0  0
    6.4452   -0.1472   19.6975 C   0  0  0  0  0  0  0  0  0  0  0  0
   12.3697   -1.3298   22.2224 C   0  0  0  0  0  0  0  0  0  0  0  0
    8.2504    0.0168   21.4265 C   0  0  0  0  0  0  0  0  0  0  0  0
    6.9880   -1.9367   21.3575 C   0  0  0  0  0  0  0  0  0  0  0  0
    9.9496    0.5589   24.9527 C   0  0  0  0  0  0  0  0  0  0  0  0
    7.0438    5.7602   25.4882 C   0  0  0  0  0  0  0  0  0  0  0  0
    6.3457    5.0688   24.3546 C   0  0  0  0  0  0  0  0  0  0  0  0
    7.8737   -0.1194   23.8825 C   0  0  0  0  0  0  0  0  0  0  0  0
    7.8447    4.9362   24.5052 C   0  0  0  0  0  0  0  0  0  0  0  0
    8.6253   -0.7606   22.6923 C   0  0  3  0  0  0  0  0  0  0  0  0
    4.9050   -4.9744   21.2686 C   0  0  0  0  0  0  0  0  0  0  0  0
    8.3986    3.6092   24.9736 C   0  0  0  0  0  0  0  0  0  0  0  0
    6.0381   -4.1225   21.7993 C   0  0  0  0  0  0  0  0  0  0  0  0
    9.3308    6.2242   22.8040 N   0  0  0  0  0  0  0  0  0  0  0  0
    6.3072    0.3768   17.3417 N   0  0  0  0  0  0  0  0  0  0  0  0
    8.0155   -2.1541   22.4325 N   0  0  0  0  0  0  0  0  0  0  0  0
    7.2305   -0.6898   20.7785 N   0  0  0  0  0  0  0  0  0  0  0  0
    8.6625    1.0133   24.4989 N   0  0  3  0  0  0  0  0  0  0  0  0
    6.0825   -2.8861   21.0708 N   0  3  0  0  0  0  0  0  0  0  0  0
    8.7489    1.0984   21.0877 O   0  0  0  0  0  0  0  0  0  0  0  0
    7.4104    2.4946   22.8269 O   0  0  0  0  0  0  0  0  0  0  0  0
    9.9171    2.7372   23.0342 O   0  0  0  0  0  0  0  0  0  0  0  0
    8.6196    2.4824   23.6210 S   0  0  0  0  0  0  0  0  0  0  0  0
   13.4283   -2.1423   21.1085 Cl  0  0  0  0  0  0  0  0  0  0  0  0
    2.5446    3.3512   20.6368 H   0  0  0  0  0  0  0  0  0  0  0  0
    3.5197    2.1139   22.5168 H   0  0  0  0  0  0  0  0  0  0  0  0
    3.3421    2.9744   18.3362 H   0  0  0  0  0  0  0  0  0  0  0  0
    5.3160    0.4868   22.1541 H   0  0  0  0  0  0  0  0  0  0  0  0
   12.5031    0.5937   24.9774 H   0  0  0  0  0  0  0  0  0  0  0  0
   13.9925   -0.5212   23.3801 H   0  0  0  0  0  0  0  0  0  0  0  0
   10.6043   -2.0222   21.2270 H   0  0  0  0  0  0  0  0  0  0  0  0
    4.9145    1.7511   16.7473 H   0  0  0  0  0  0  0  0  0  0  0  0
    7.6462   -0.9771   18.1096 H   0  0  0  0  0  0  0  0  0  0  0  0
    9.7617   -0.1285   25.8178 H   0  0  0  0  0  0  0  0  0  0  0  0
   10.4958    1.4389   25.3822 H   0  0  0  0  0  0  0  0  0  0  0  0
    7.1156    6.8413   25.4490 H   0  0  0  0  0  0  0  0  0  0  0  0
    6.8892    5.3693   26.4873 H   0  0  0  0  0  0  0  0  0  0  0  0
    5.7226    4.2150   24.5946 H   0  0  0  0  0  0  0  0  0  0  0  0
    5.9497    5.6876   23.5574 H   0  0  0  0  0  0  0  0  0  0  0  0
    6.8928    0.2689   23.5591 H   0  0  0  0  0  0  0  0  0  0  0  0
    7.6755   -0.8816   24.6542 H   0  0  0  0  0  0  0  0  0  0  0  0
    3.9360   -4.4798   21.4009 H   0  0  0  0  0  0  0  0  0  0  0  0
    5.0290   -5.1853   20.2006 H   0  0  0  0  0  0  0  0  0  0  0  0
    4.8706   -5.9309   21.8001 H   0  0  0  0  0  0  0  0  0  0  0  0
    7.7192    3.1304   25.6843 H   0  0  0  0  0  0  0  0  0  0  0  0
    9.3749    3.7383   25.4486 H   0  0  0  0  0  0  0  0  0  0  0  0
    7.0043   -4.6169   21.6668 H   0  0  0  0  0  0  0  0  0  0  0  0
    5.8955   -3.8757   22.8546 H   0  0  0  0  0  0  0  0  0  0  0  0
    8.2335   -2.9943   22.7995 H   0  0  0  0  0  0  0  0  0  0  0  0
    5.4805   -2.6356   20.3216 H   0  0  0  0  0  0  0  0  0  0  0  0
  1 23  1  0  0  0  0
  1 28  3  0  0  0  0
  2  3  2  0  0  0  0
  2  4  1  0  0  0  0
  3  5  1  0  0  0  0
  4 11  2  0  0  0  0
  5 12  2  0  0  0  0
  6  7  2  0  0  0  0
  6 13  1  0  0  0  0
  7 16  1  0  0  0  0
  8 14  1  0  0  0  0
  8 16  2  0  0  0  0
  9 11  1  0  0  0  0
  9 29  2  0  0  0  0
 10 15  2  0  0  0  0
 10 29  1  0  0  0  0
 11 12  1  0  0  0  0
 12 15  1  0  0  0  0
 13 14  2  0  0  0  0
 13 19  1  0  0  0  0
 14 24  1  0  0  0  0
 15 31  1  0  0  0  0
 16 38  1  0  0  0  0
 17 24  1  0  0  0  0
 17 31  1  0  0  0  0
 17 34  2  0  0  0  0
 18 30  1  0  0  0  0
 18 31  1  0  0  0  0
 18 33  2  0  0  0  0
 19 32  1  0  0  0  0
 20 21  1  0  0  0  0
 20 23  1  0  0  0  0
 21 23  1  0  0  0  0
 22 24  1  0  0  0  0
 22 32  1  0  0  0  0
 23 26  1  0  0  0  0
 24 30  1  0  0  0  0
 25 27  1  0  0  0  0
 26 37  1  0  0  0  0
 27 33  1  0  0  0  0
 32 37  1  0  0  0  0
 35 37  2  0  0  0  0
 36 37  2  0  0  0  0
  2 39  1  0  0  0  0
  3 40  1  0  0  0  0
  4 41  1  0  0  0  0
  5 42  1  0  0  0  0
  6 43  1  0  0  0  0
  7 44  1  0  0  0  0
  8 45  1  0  0  0  0
  9 46  1  0  0  0  0
 10 47  1  0  0  0  0
 19 48  1  0  0  0  0
 19 49  1  0  0  0  0
 20 50  1  0  0  0  0
 20 51  1  0  0  0  0
 21 52  1  0  0  0  0
 21 53  1  0  0  0  0
 22 54  1  0  0  0  0
 22 55  1  0  0  0  0
 25 56  1  0  0  0  0
 25 57  1  0  0  0  0
 25 58  1  0  0  0  0
 26 59  1  0  0  0  0
 26 60  1  0  0  0  0
 27 61  1  0  0  0  0
 27 62  1  0  0  0  0
 30 63  1  0  0  0  0
 33 64  1  0  0  0  0
M  CHG  1  33   1
M  END
> <scaffold>
tetrahydroisoquinoline-5spiro-isoquinoline

> <compound>
LUO-POS-eaf50f21-5

> <compound_smiles>
CCNC1=NC2(CN(Cc3c2cc(cc3)Cl)S(=O)(=O)CC4(CC4)C#N)C(=O)N1c5cncc6c5cccc6

> <enantiomer_smiles>
CCNC1=N[C@@]2(C[N@@](Cc3c2cc(cc3)Cl)S(=O)(=O)CC4(CC4)C#N)C(=O)N1c5cncc6c5cccc6

> <clash_score>
0

> <docking_score>
3.4028234663852886e+38

> <overlap_score>
1.0

> <MMFF_internal_energy>
27.60654852451587

> <docked_smiles>
CC/[NH+]=C/1\N[C@@]2(C[N@@](Cc3c2cc(cc3)Cl)S(=O)(=O)CC4(CC4)C#N)C(=O)N1c5cncc6c5cccc6

$$$$
MAT-POS-853c0ffa-12_1
  -OEChem-01042202313D

 71 76  0     1  0  0  0  0  0999 V2000
    3.7877    2.4205   19.1658 C   0  0  0  0  0  0  0  0  0  0  0  0
   12.0781    0.0316   24.1532 C   0  0  0  0  0  0  0  0  0  0  0  0
    3.3444    2.6278   20.4409 C   0  0  0  0  0  0  0  0  0  0  0  0
   12.9147   -0.6032   23.2559 C   0  0  0  0  0  0  0  0  0  0  0  0
    4.8986    1.0232   21.2985 C   0  0  0  0  0  0  0  0  0  0  0  0
   11.0005   -1.4332   22.0435 C   0  0  0  0  0  0  0  0  0  0  0  0
    5.3288    1.2339   17.6062 C   0  0  0  0  0  0  0  0  0  0  0  0
    6.8449   -0.2893   18.3747 C   0  0  0  0  0  0  0  0  0  0  0  0
    4.8238    1.4906   18.9051 C   0  0  0  0  0  0  0  0  0  0  0  0
    5.3995    0.7732   19.9944 C   0  0  0  0  0  0  0  0  0  0  0  0
   10.7056   -0.0626   23.9890 C   0  0  0  0  0  0  0  0  0  0  0  0
   10.1421   -0.7766   22.9242 C   0  0  0  0  0  0  0  0  0  0  0  0
    3.8974    1.9290   21.5048 C   0  0  0  0  0  0  0  0  0  0  0  0
    6.4452   -0.1472   19.6975 C   0  0  0  0  0  0  0  0  0  0  0  0
   12.3697   -1.3298   22.2224 C   0  0  0  0  0  0  0  0  0  0  0  0
    8.2504    0.0168   21.4265 C   0  0  0  0  0  0  0  0  0  0  0  0
    9.9496    0.5589   24.9527 C   0  0  0  0  0  0  0  0  0  0  0  0
    6.9477    1.0432   29.4808 C   0  0  0  0  0  0  0  0  0  0  0  0
    7.5627    2.3715   29.1372 C   0  0  0  0  0  0  0  0  0  0  0  0
    8.0155   -2.1541   22.4325 C   0  0  0  0  0  0  0  0  0  0  0  0
    6.9880   -1.9367   21.3575 C   0  0  0  0  0  0  0  0  0  0  0  0
    7.8737   -0.1194   23.8825 C   0  0  0  0  0  0  0  0  0  0  0  0
    8.6253   -0.7606   22.6923 C   0  0  3  0  0  0  0  0  0  0  0  0
    6.8379    1.5828   28.0804 C   0  0  0  0  0  0  0  0  0  0  0  0
    1.8743    1.8831   23.1000 C   0  0  0  0  0  0  0  0  0  0  0  0
    3.6646    3.6383   23.3204 C   0  0  0  0  0  0  0  0  0  0  0  0
    4.5680    1.0542   27.7790 C   0  0  0  0  0  0  0  0  0  0  0  0
    7.6088    0.9304   26.9546 C   0  0  0  0  0  0  0  0  0  0  0  0
    3.3812    2.1809   22.8921 C   0  0  0  0  0  0  0  0  0  0  0  0
    6.3072    0.3768   17.3417 N   0  0  0  0  0  0  0  0  0  0  0  0
    7.2305   -0.6898   20.7785 N   0  0  0  0  0  0  0  0  0  0  0  0
    8.6625    1.0133   24.4989 N   0  0  3  0  0  0  0  0  0  0  0  0
    8.8314    1.0394   21.0790 O   0  0  0  0  0  0  0  0  0  0  0  0
    6.4559    2.2241   24.9990 O   0  0  0  0  0  0  0  0  0  0  0  0
    8.6119    3.1278   25.9583 O   0  0  0  0  0  0  0  0  0  0  0  0
    4.0602    1.3287   23.8428 O   0  0  0  0  0  0  0  0  0  0  0  0
    5.5439    2.0759   27.6956 O   0  0  0  0  0  0  0  0  0  0  0  0
    7.7725    2.0180   25.5623 S   0  0  0  0  0  0  0  0  0  0  0  0
   13.4285   -2.1410   21.1076 Cl  0  0  0  0  0  0  0  0  0  0  0  0
    3.3431    2.9748   18.3360 H   0  0  0  0  0  0  0  0  0  0  0  0
   12.5038    0.5986   24.9731 H   0  0  0  0  0  0  0  0  0  0  0  0
    2.5422    3.3527   20.6266 H   0  0  0  0  0  0  0  0  0  0  0  0
   13.9925   -0.5165   23.3773 H   0  0  0  0  0  0  0  0  0  0  0  0
    5.3189    0.4834   22.1514 H   0  0  0  0  0  0  0  0  0  0  0  0
   10.6052   -2.0169   21.2237 H   0  0  0  0  0  0  0  0  0  0  0  0
    4.9144    1.7509   16.7472 H   0  0  0  0  0  0  0  0  0  0  0  0
    7.6460   -0.9759   18.1038 H   0  0  0  0  0  0  0  0  0  0  0  0
    9.7866   -0.1187   25.8304 H   0  0  0  0  0  0  0  0  0  0  0  0
   10.4816    1.4567   25.3600 H   0  0  0  0  0  0  0  0  0  0  0  0
    7.6181    0.2123   29.6648 H   0  0  0  0  0  0  0  0  0  0  0  0
    6.0602    1.0451   30.1019 H   0  0  0  0  0  0  0  0  0  0  0  0
    7.0870    3.2628   29.5287 H   0  0  0  0  0  0  0  0  0  0  0  0
    8.6436    2.4274   29.0913 H   0  0  0  0  0  0  0  0  0  0  0  0
    7.5167   -2.5459   23.3332 H   0  0  0  0  0  0  0  0  0  0  0  0
    8.7666   -2.9029   22.1426 H   0  0  0  0  0  0  0  0  0  0  0  0
    7.0601   -2.7250   20.5715 H   0  0  0  0  0  0  0  0  0  0  0  0
    5.9530   -1.9963   21.7709 H   0  0  0  0  0  0  0  0  0  0  0  0
    6.8882    0.2643   23.5640 H   0  0  0  0  0  0  0  0  0  0  0  0
    7.6667   -0.8657   24.6729 H   0  0  0  0  0  0  0  0  0  0  0  0
    1.5542    2.0851   24.1294 H   0  0  0  0  0  0  0  0  0  0  0  0
    1.2404    2.4783   22.4352 H   0  0  0  0  0  0  0  0  0  0  0  0
    1.6695    0.8219   22.9153 H   0  0  0  0  0  0  0  0  0  0  0  0
    3.3022    3.8494   24.3332 H   0  0  0  0  0  0  0  0  0  0  0  0
    3.1983    4.3518   22.6324 H   0  0  0  0  0  0  0  0  0  0  0  0
    4.7439    3.8318   23.3327 H   0  0  0  0  0  0  0  0  0  0  0  0
    3.5951    1.4535   27.4821 H   0  0  0  0  0  0  0  0  0  0  0  0
    4.5215    0.6763   28.8035 H   0  0  0  0  0  0  0  0  0  0  0  0
    4.8465    0.2407   27.1050 H   0  0  0  0  0  0  0  0  0  0  0  0
    7.0989    0.0296   26.6018 H   0  0  0  0  0  0  0  0  0  0  0  0
    8.6192    0.6630   27.2756 H   0  0  0  0  0  0  0  0  0  0  0  0
    3.6813    1.5509   24.7009 H   0  0  0  0  0  0  0  0  0  0  0  0
  1  3  2  0  0  0  0
  1  9  1  0  0  0  0
  2  4  2  0  0  0  0
  2 11  1  0  0  0  0
  3 13  1  0  0  0  0
  4 15  1  0  0  0  0
  5 10  1  0  0  0  0
  5 13  2  0  0  0  0
  6 12  1  0  0  0  0
  6 15  2  0  0  0  0
  7  9  2  0  0  0  0
  7 30  1  0  0  0  0
  8 14  1  0  0  0  0
  8 30  2  0  0  0  0
  9 10  1  0  0  0  0
 10 14  2  0  0  0  0
 11 12  2  0  0  0  0
 11 17  1  0  0  0  0
 12 23  1  0  0  0  0
 13 29  1  0  0  0  0
 14 31  1  0  0  0  0
 15 39  1  0  0  0  0
 16 23  1  0  0  0  0
 16 31  1  0  0  0  0
 16 33  2  0  0  0  0
 17 32  1  0  0  0  0
 18 19  1  0  0  0  0
 18 24  1  0  0  0  0
 19 24  1  0  0  0  0
 20 21  1  0  0  0  0
 20 23  1  0  0  0  0
 21 31  1  0  0  0  0
 22 23  1  0  0  0  0
 22 32  1  0  0  0  0
 24 28  1  0  0  0  0
 24 37  1  0  0  0  0
 25 29  1  0  0  0  0
 26 29  1  0  0  0  0
 27 37  1  0  0  0  0
 28 38  1  0  0  0  0
 29 36  1  0  0  0  0
 32 38  1  0  0  0  0
 34 38  2  0  0  0  0
 35 38  2  0  0  0  0
  1 40  1  0  0  0  0
  2 41  1  0  0  0  0
  3 42  1  0  0  0  0
  4 43  1  0  0  0  0
  5 44  1  0  0  0  0
  6 45  1  0  0  0  0
  7 46  1  0  0  0  0
  8 47  1  0  0  0  0
 17 48  1  0  0  0  0
 17 49  1  0  0  0  0
 18 50  1  0  0  0  0
 18 51  1  0  0  0  0
 19 52  1  0  0  0  0
 19 53  1  0  0  0  0
 20 54  1  0  0  0  0
 20 55  1  0  0  0  0
 21 56  1  0  0  0  0
 21 57  1  0  0  0  0
 22 58  1  0  0  0  0
 22 59  1  0  0  0  0
 25 60  1  0  0  0  0
 25 61  1  0  0  0  0
 25 62  1  0  0  0  0
 26 63  1  0  0  0  0
 26 64  1  0  0  0  0
 26 65  1  0  0  0  0
 27 66  1  0  0  0  0
 27 67  1  0  0  0  0
 27 68  1  0  0  0  0
 28 69  1  0  0  0  0
 28 70  1  0  0  0  0
 36 71  1  0  0  0  0
M  END
> <scaffold>
tetrahydroisoquinoline-5spiro-isoquinoline

> <compound>
MAT-POS-853c0ffa-12

> <compound_smiles>
CC(C)(c1ccc2cncc(c2c1)N3CCC4(C3=O)CN(Cc5c4cc(cc5)Cl)S(=O)(=O)CC6(CC6)OC)O

> <enantiomer_smiles>
CC(C)(c1ccc2cncc(c2c1)N3CC[C@]4(C3=O)C[N@](Cc5c4cc(cc5)Cl)S(=O)(=O)CC6(CC6)OC)O

> <clash_score>
0

> <docking_score>
3.4028234663852886e+38

> <overlap_score>
0.9776183366775513

> <MMFF_internal_energy>
143.58025109651163

> <docked_smiles>
CC(C)(c1ccc2cncc(c2c1)N3CC[C@]4(C3=O)C[N@](Cc5c4cc(cc5)Cl)S(=O)(=O)CC6(CC6)OC)O

$$$$
EDJ-MED-9f4ac58c-8_1
  -OEChem-01042202313D

 66 71  0     1  0  0  0  0  0999 V2000
    4.8986    1.0232   21.2985 C   0  0  0  0  0  0  0  0  0  0  0  0
   12.0781    0.0316   24.1532 C   0  0  0  0  0  0  0  0  0  0  0  0
    3.8974    1.9290   21.5048 C   0  0  0  0  0  0  0  0  0  0  0  0
   12.9147   -0.6032   23.2559 C   0  0  0  0  0  0  0  0  0  0  0  0
    3.7877    2.4205   19.1658 C   0  0  0  0  0  0  0  0  0  0  0  0
   11.0005   -1.4332   22.0435 C   0  0  0  0  0  0  0  0  0  0  0  0
    5.3288    1.2339   17.6062 C   0  0  0  0  0  0  0  0  0  0  0  0
    6.8449   -0.2893   18.3747 C   0  0  0  0  0  0  0  0  0  0  0  0
    5.3995    0.7732   19.9944 C   0  0  0  0  0  0  0  0  0  0  0  0
    4.8238    1.4906   18.9051 C   0  0  0  0  0  0  0  0  0  0  0  0
   10.7056   -0.0626   23.9890 C   0  0  0  0  0  0  0  0  0  0  0  0
   10.1421   -0.7766   22.9242 C   0  0  0  0  0  0  0  0  0  0  0  0
    6.4452   -0.1472   19.6975 C   0  0  0  0  0  0  0  0  0  0  0  0
    3.3444    2.6278   20.4409 C   0  0  0  0  0  0  0  0  0  0  0  0
   12.3697   -1.3298   22.2224 C   0  0  0  0  0  0  0  0  0  0  0  0
    9.9496    0.5589   24.9527 C   0  0  0  0  0  0  0  0  0  0  0  0
    8.2504    0.0168   21.4265 C   0  0  0  0  0  0  0  0  0  0  0  0
    5.6592    2.5893   28.4120 C   0  0  0  0  0  0  0  0  0  0  0  0
    6.7130    3.6210   28.1192 C   0  0  0  0  0  0  0  0  0  0  0  0
    8.0155   -2.1541   22.4325 C   0  0  0  0  0  0  0  0  0  0  0  0
    6.9880   -1.9367   21.3575 C   0  0  0  0  0  0  0  0  0  0  0  0
    7.8737   -0.1194   23.8825 C   0  0  0  0  0  0  0  0  0  0  0  0
    8.6253   -0.7606   22.6923 C   0  0  3  0  0  0  0  0  0  0  0  0
    6.1458    2.7877   27.0020 C   0  0  0  0  0  0  0  0  0  0  0  0
    4.0261    2.7322   25.9888 C   0  0  0  0  0  0  0  0  0  0  0  0
    0.5686    2.8317   20.6207 C   0  0  0  0  0  0  0  0  0  0  0  0
    6.9941    1.7268   26.3371 C   0  0  0  0  0  0  0  0  0  0  0  0
    6.3072    0.3768   17.3417 N   0  0  0  0  0  0  0  0  0  0  0  0
    7.2305   -0.6898   20.7785 N   0  0  0  0  0  0  0  0  0  0  0  0
    8.6625    1.0133   24.4989 N   0  0  0  0  0  0  0  0  0  0  0  0
   10.3166    0.7434   26.1217 O   0  0  0  0  0  0  0  0  0  0  0  0
    8.8196    1.0408   21.0766 O   0  0  0  0  0  0  0  0  0  0  0  0
    2.1898    4.2351   22.1297 O   0  0  0  0  0  0  0  0  0  0  0  0
    2.0344    4.7672   19.6723 O   0  0  0  0  0  0  0  0  0  0  0  0
    6.9311    2.7494   23.9334 O   0  0  0  0  0  0  0  0  0  0  0  0
    8.8702    3.3156   25.4517 O   0  0  0  0  0  0  0  0  0  0  0  0
    5.2370    3.4549   26.1106 O   0  0  0  0  0  0  0  0  0  0  0  0
    2.0628    3.7877   20.7500 S   0  0  0  0  0  0  0  0  0  0  0  0
    7.8873    2.3819   24.9522 S   0  0  0  0  0  0  0  0  0  0  0  0
   13.4293   -2.1466   21.1128 Cl  0  0  0  0  0  0  0  0  0  0  0  0
    5.3127    0.4890   22.1568 H   0  0  0  0  0  0  0  0  0  0  0  0
   12.5191    0.5957   24.9706 H   0  0  0  0  0  0  0  0  0  0  0  0
    3.5274    2.1069   22.5215 H   0  0  0  0  0  0  0  0  0  0  0  0
   13.9921   -0.5215   23.3809 H   0  0  0  0  0  0  0  0  0  0  0  0
    3.3498    2.9707   18.3288 H   0  0  0  0  0  0  0  0  0  0  0  0
   10.6170   -2.0260   21.2272 H   0  0  0  0  0  0  0  0  0  0  0  0
    4.9155    1.7517   16.7470 H   0  0  0  0  0  0  0  0  0  0  0  0
    7.6461   -0.9756   18.1037 H   0  0  0  0  0  0  0  0  0  0  0  0
    5.9648    1.6969   28.9448 H   0  0  0  0  0  0  0  0  0  0  0  0
    4.6668    2.9418   28.6662 H   0  0  0  0  0  0  0  0  0  0  0  0
    6.4263    4.6642   28.1777 H   0  0  0  0  0  0  0  0  0  0  0  0
    7.7223    3.4172   28.4560 H   0  0  0  0  0  0  0  0  0  0  0  0
    7.5124   -2.5282   23.3379 H   0  0  0  0  0  0  0  0  0  0  0  0
    8.7585   -2.9105   22.1421 H   0  0  0  0  0  0  0  0  0  0  0  0
    7.0610   -2.7257   20.5719 H   0  0  0  0  0  0  0  0  0  0  0  0
    5.9524   -1.9968   21.7699 H   0  0  0  0  0  0  0  0  0  0  0  0
    6.8990    0.2933   23.5632 H   0  0  0  0  0  0  0  0  0  0  0  0
    7.6456   -0.8834   24.6465 H   0  0  0  0  0  0  0  0  0  0  0  0
    3.3536    3.2589   25.3074 H   0  0  0  0  0  0  0  0  0  0  0  0
    3.5602    2.6318   26.9723 H   0  0  0  0  0  0  0  0  0  0  0  0
    4.2434    1.7395   25.5877 H   0  0  0  0  0  0  0  0  0  0  0  0
   -0.2799    3.4922   20.8064 H   0  0  0  0  0  0  0  0  0  0  0  0
    0.5139    2.4126   19.6149 H   0  0  0  0  0  0  0  0  0  0  0  0
    0.6038    2.0355   21.3657 H   0  0  0  0  0  0  0  0  0  0  0  0
    6.3739    0.9078   25.9624 H   0  0  0  0  0  0  0  0  0  0  0  0
    7.7323    1.3219   27.0346 H   0  0  0  0  0  0  0  0  0  0  0  0
  1  3  2  0  0  0  0
  1  9  1  0  0  0  0
  2  4  2  0  0  0  0
  2 11  1  0  0  0  0
  3 14  1  0  0  0  0
  4 15  1  0  0  0  0
  5 10  1  0  0  0  0
  5 14  2  0  0  0  0
  6 12  1  0  0  0  0
  6 15  2  0  0  0  0
  7 10  2  0  0  0  0
  7 28  1  0  0  0  0
  8 13  1  0  0  0  0
  8 28  2  0  0  0  0
  9 10  1  0  0  0  0
  9 13  2  0  0  0  0
 11 12  2  0  0  0  0
 11 16  1  0  0  0  0
 12 23  1  0  0  0  0
 13 29  1  0  0  0  0
 14 38  1  0  0  0  0
 15 40  1  0  0  0  0
 16 30  1  0  0  0  0
 16 31  2  0  0  0  0
 17 23  1  0  0  0  0
 17 29  1  0  0  0  0
 17 32  2  0  0  0  0
 18 19  1  0  0  0  0
 18 24  1  0  0  0  0
 19 24  1  0  0  0  0
 20 21  1  0  0  0  0
 20 23  1  0  0  0  0
 21 29  1  0  0  0  0
 22 23  1  0  0  0  0
 22 30  1  0  0  0  0
 24 27  1  0  0  0  0
 24 37  1  0  0  0  0
 25 37  1  0  0  0  0
 26 38  1  0  0  0  0
 27 39  1  0  0  0  0
 30 39  1  0  0  0  0
 33 38  2  0  0  0  0
 34 38  2  0  0  0  0
 35 39  2  0  0  0  0
 36 39  2  0  0  0  0
  1 41  1  0  0  0  0
  2 42  1  0  0  0  0
  3 43  1  0  0  0  0
  4 44  1  0  0  0  0
  5 45  1  0  0  0  0
  6 46  1  0  0  0  0
  7 47  1  0  0  0  0
  8 48  1  0  0  0  0
 18 49  1  0  0  0  0
 18 50  1  0  0  0  0
 19 51  1  0  0  0  0
 19 52  1  0  0  0  0
 20 53  1  0  0  0  0
 20 54  1  0  0  0  0
 21 55  1  0  0  0  0
 21 56  1  0  0  0  0
 22 57  1  0  0  0  0
 22 58  1  0  0  0  0
 25 59  1  0  0  0  0
 25 60  1  0  0  0  0
 25 61  1  0  0  0  0
 26 62  1  0  0  0  0
 26 63  1  0  0  0  0
 26 64  1  0  0  0  0
 27 65  1  0  0  0  0
 27 66  1  0  0  0  0
M  END
> <scaffold>
tetrahydroisoquinoline-5spiro-isoquinoline

> <compound>
EDJ-MED-9f4ac58c-8

> <compound_smiles>
COC1(CC1)CS(=O)(=O)N2CC3(CCN(C3=O)c4cncc5c4ccc(c5)S(=O)(=O)C)c6cc(ccc6C2=O)Cl

> <enantiomer_smiles>
COC1(CC1)CS(=O)(=O)N2C[C@]3(CCN(C3=O)c4cncc5c4ccc(c5)S(=O)(=O)C)c6cc(ccc6C2=O)Cl

> <clash_score>
0.7123121228701611

> <docking_score>
3.4028234663852886e+38

> <overlap_score>
0.9852917194366455

> <MMFF_internal_energy>
132.36975971870189

> <docked_smiles>
COC1(CC1)CS(=O)(=O)N2C[C@]3(CCN(C3=O)c4cncc5c4ccc(c5)S(=O)(=O)C)c6cc(ccc6C2=O)Cl

$$$$
MAT-POS-38eb6498-4_1
  -OEChem-01042202313D

 69 73  0     1  0  0  0  0  0999 V2000
    3.7877    2.4205   19.1658 C   0  0  0  0  0  0  0  0  0  0  0  0
   12.0781    0.0316   24.1532 C   0  0  0  0  0  0  0  0  0  0  0  0
    3.3444    2.6278   20.4409 C   0  0  0  0  0  0  0  0  0  0  0  0
   12.9147   -0.6032   23.2559 C   0  0  0  0  0  0  0  0  0  0  0  0
    4.8986    1.0232   21.2985 C   0  0  0  0  0  0  0  0  0  0  0  0
   11.0005   -1.4332   22.0435 C   0  0  0  0  0  0  0  0  0  0  0  0
    5.3288    1.2339   17.6062 C   0  0  0  0  0  0  0  0  0  0  0  0
    6.8449   -0.2893   18.3747 C   0  0  0  0  0  0  0  0  0  0  0  0
    4.8238    1.4906   18.9051 C   0  0  0  0  0  0  0  0  0  0  0  0
    5.3995    0.7732   19.9944 C   0  0  0  0  0  0  0  0  0  0  0  0
   10.7056   -0.0626   23.9890 C   0  0  0  0  0  0  0  0  0  0  0  0
   10.1421   -0.7766   22.9242 C   0  0  0  0  0  0  0  0  0  0  0  0
    6.4452   -0.1472   19.6975 C   0  0  0  0  0  0  0  0  0  0  0  0
    3.8974    1.9290   21.5048 C   0  0  0  0  0  0  0  0  0  0  0  0
   12.3697   -1.3298   22.2224 C   0  0  0  0  0  0  0  0  0  0  0  0
    9.9496    0.5589   24.9527 C   0  0  0  0  0  0  0  0  0  0  0  0
    8.2504    0.0168   21.4265 C   0  0  0  0  0  0  0  0  0  0  0  0
    6.7964    2.0287   25.5065 C   0  0  0  0  0  0  0  0  0  0  0  0
    8.0155   -2.1541   22.4325 C   0  0  0  0  0  0  0  0  0  0  0  0
    6.9880   -1.9367   21.3575 C   0  0  0  0  0  0  0  0  0  0  0  0
    7.8737   -0.1194   23.8825 C   0  0  0  0  0  0  0  0  0  0  0  0
    8.6253   -0.7606   22.6923 C   0  0  3  0  0  0  0  0  0  0  0  0
    5.9239    1.0402   27.6220 C   0  0  0  0  0  0  0  0  0  0  0  0
    3.7136    4.9969   24.6321 C   0  0  0  0  0  0  0  0  0  0  0  0
    2.8377    3.7953   26.6296 C   0  0  0  0  0  0  0  0  0  0  0  0
    8.0937    2.2235   24.7641 C   0  0  0  0  0  0  0  0  0  0  0  0
    1.9764    3.2330   24.3618 C   0  0  0  0  0  0  0  0  0  0  0  0
    2.3771    3.1178   22.9043 C   0  0  0  0  0  0  0  0  0  0  0  0
    6.3072    0.3768   17.3417 N   0  0  0  0  0  0  0  0  0  0  0  0
    7.2305   -0.6898   20.7785 N   0  0  0  0  0  0  0  0  0  0  0  0
    8.6625    1.0133   24.4989 N   0  0  0  0  0  0  0  0  0  0  0  0
    6.9949    1.3594   26.7055 N   0  0  0  0  0  0  0  0  0  0  0  0
    3.1406    3.7026   25.1545 N   0  3  0  0  0  0  0  0  0  0  0  0
   10.3233    0.7301   26.1084 O   0  0  0  0  0  0  0  0  0  0  0  0
    8.8205    1.0412   21.0776 O   0  0  0  0  0  0  0  0  0  0  0  0
    5.7117    2.4230   25.0864 O   0  0  0  0  0  0  0  0  0  0  0  0
    3.4243    2.1582   22.7713 O   0  0  0  0  0  0  0  0  0  0  0  0
   13.4288   -2.1465   21.1124 Cl  0  0  0  0  0  0  0  0  0  0  0  0
    3.3418    2.9747   18.3367 H   0  0  0  0  0  0  0  0  0  0  0  0
   12.5188    0.5961   24.9710 H   0  0  0  0  0  0  0  0  0  0  0  0
    2.5418    3.3504   20.6305 H   0  0  0  0  0  0  0  0  0  0  0  0
   13.9920   -0.5226   23.3817 H   0  0  0  0  0  0  0  0  0  0  0  0
    5.3175    0.4856   22.1531 H   0  0  0  0  0  0  0  0  0  0  0  0
   10.6143   -2.0253   21.2266 H   0  0  0  0  0  0  0  0  0  0  0  0
    4.9141    1.7513   16.7475 H   0  0  0  0  0  0  0  0  0  0  0  0
    7.6459   -0.9759   18.1036 H   0  0  0  0  0  0  0  0  0  0  0  0
    7.5128   -2.5277   23.3386 H   0  0  0  0  0  0  0  0  0  0  0  0
    8.7593   -2.9102   22.1430 H   0  0  0  0  0  0  0  0  0  0  0  0
    7.0602   -2.7255   20.5716 H   0  0  0  0  0  0  0  0  0  0  0  0
    5.9526   -1.9964   21.7706 H   0  0  0  0  0  0  0  0  0  0  0  0
    6.9217    0.3182   23.5732 H   0  0  0  0  0  0  0  0  0  0  0  0
    7.6678   -0.8543   24.6617 H   0  0  0  0  0  0  0  0  0  0  0  0
    5.7945    1.8658   28.3374 H   0  0  0  0  0  0  0  0  0  0  0  0
    4.9907    0.8938   27.0585 H   0  0  0  0  0  0  0  0  0  0  0  0
    6.1713    0.1177   28.1678 H   0  0  0  0  0  0  0  0  0  0  0  0
    2.9412    5.7632   24.7193 H   0  0  0  0  0  0  0  0  0  0  0  0
    4.5847    5.2464   25.2409 H   0  0  0  0  0  0  0  0  0  0  0  0
    3.9953    4.8406   23.5891 H   0  0  0  0  0  0  0  0  0  0  0  0
    2.0454    4.5345   26.7619 H   0  0  0  0  0  0  0  0  0  0  0  0
    2.5145    2.8087   26.9670 H   0  0  0  0  0  0  0  0  0  0  0  0
    3.7520    4.1046   27.1396 H   0  0  0  0  0  0  0  0  0  0  0  0
    7.9052    2.7527   23.8253 H   0  0  0  0  0  0  0  0  0  0  0  0
    8.7872    2.8076   25.3762 H   0  0  0  0  0  0  0  0  0  0  0  0
    1.6834    2.2686   24.7862 H   0  0  0  0  0  0  0  0  0  0  0  0
    1.1814    3.9694   24.5057 H   0  0  0  0  0  0  0  0  0  0  0  0
    1.5250    2.7720   22.3109 H   0  0  0  0  0  0  0  0  0  0  0  0
    2.7198    4.0767   22.5020 H   0  0  0  0  0  0  0  0  0  0  0  0
    7.9400    1.0797   26.9515 H   0  0  0  0  0  0  0  0  0  0  0  0
    3.8915    2.9979   25.0599 H   0  0  0  0  0  0  0  0  0  0  0  0
  1  3  2  0  0  0  0
  1  9  1  0  0  0  0
  2  4  2  0  0  0  0
  2 11  1  0  0  0  0
  3 14  1  0  0  0  0
  4 15  1  0  0  0  0
  5 10  1  0  0  0  0
  5 14  2  0  0  0  0
  6 12  1  0  0  0  0
  6 15  2  0  0  0  0
  7  9  2  0  0  0  0
  7 29  1  0  0  0  0
  8 13  1  0  0  0  0
  8 29  2  0  0  0  0
  9 10  1  0  0  0  0
 10 13  2  0  0  0  0
 11 12  2  0  0  0  0
 11 16  1  0  0  0  0
 12 22  1  0  0  0  0
 13 30  1  0  0  0  0
 14 37  1  0  0  0  0
 15 38  1  0  0  0  0
 16 31  1  0  0  0  0
 16 34  2  0  0  0  0
 17 22  1  0  0  0  0
 17 30  1  0  0  0  0
 17 35  2  0  0  0  0
 18 26  1  0  0  0  0
 18 32  1  0  0  0  0
 18 36  2  0  0  0  0
 19 20  1  0  0  0  0
 19 22  1  0  0  0  0
 20 30  1  0  0  0  0
 21 22  1  0  0  0  0
 21 31  1  0  0  0  0
 23 32  1  0  0  0  0
 24 33  1  0  0  0  0
 25 33  1  0  0  0  0
 26 31  1  0  0  0  0
 27 28  1  0  0  0  0
 27 33  1  0  0  0  0
 28 37  1  0  0  0  0
  1 39  1  0  0  0  0
  2 40  1  0  0  0  0
  3 41  1  0  0  0  0
  4 42  1  0  0  0  0
  5 43  1  0  0  0  0
  6 44  1  0  0  0  0
  7 45  1  0  0  0  0
  8 46  1  0  0  0  0
 19 47  1  0  0  0  0
 19 48  1  0  0  0  0
 20 49  1  0  0  0  0
 20 50  1  0  0  0  0
 21 51  1  0  0  0  0
 21 52  1  0  0  0  0
 23 53  1  0  0  0  0
 23 54  1  0  0  0  0
 23 55  1  0  0  0  0
 24 56  1  0  0  0  0
 24 57  1  0  0  0  0
 24 58  1  0  0  0  0
 25 59  1  0  0  0  0
 25 60  1  0  0  0  0
 25 61  1  0  0  0  0
 26 62  1  0  0  0  0
 26 63  1  0  0  0  0
 27 64  1  0  0  0  0
 27 65  1  0  0  0  0
 28 66  1  0  0  0  0
 28 67  1  0  0  0  0
 32 68  1  0  0  0  0
 33 69  1  0  0  0  0
M  CHG  1  33   1
M  END
> <scaffold>
tetrahydroisoquinoline-5spiro-isoquinoline

> <compound>
MAT-POS-38eb6498-4

> <compound_smiles>
CNC(=O)CN1CC2(CCN(C2=O)c3cncc4c3cc(cc4)OCCN(C)C)c5cc(ccc5C1=O)Cl

> <enantiomer_smiles>
CNC(=O)CN1C[C@]2(CCN(C2=O)c3cncc4c3cc(cc4)OCCN(C)C)c5cc(ccc5C1=O)Cl

> <clash_score>
0

> <docking_score>
3.4028234663852886e+38

> <overlap_score>
1.0

> <MMFF_internal_energy>
174.05504004593394

> <docked_smiles>
CNC(=O)CN1C[C@]2(CCN(C2=O)c3cncc4c3cc(cc4)OCC[NH+](C)C)c5cc(ccc5C1=O)Cl

$$$$
EDJ-MED-7d88f880-3_1
  -OEChem-01042202313D

 64 69  0     1  0  0  0  0  0999 V2000
    5.1643    3.4536   26.1297 C   0  0  0  0  0  0  0  0  0  0  0  0
    4.8986    1.0232   21.2985 C   0  0  0  0  0  0  0  0  0  0  0  0
   12.0781    0.0316   24.1532 C   0  0  0  0  0  0  0  0  0  0  0  0
    3.8974    1.9290   21.5048 C   0  0  0  0  0  0  0  0  0  0  0  0
   12.9147   -0.6032   23.2559 C   0  0  0  0  0  0  0  0  0  0  0  0
    3.7877    2.4205   19.1658 C   0  0  0  0  0  0  0  0  0  0  0  0
   11.0005   -1.4332   22.0435 C   0  0  0  0  0  0  0  0  0  0  0  0
    5.3288    1.2339   17.6062 C   0  0  0  0  0  0  0  0  0  0  0  0
    6.8449   -0.2893   18.3747 C   0  0  0  0  0  0  0  0  0  0  0  0
    5.3995    0.7732   19.9944 C   0  0  0  0  0  0  0  0  0  0  0  0
    4.8238    1.4906   18.9051 C   0  0  0  0  0  0  0  0  0  0  0  0
   10.7056   -0.0626   23.9890 C   0  0  0  0  0  0  0  0  0  0  0  0
   10.1421   -0.7766   22.9242 C   0  0  0  0  0  0  0  0  0  0  0  0
    6.4452   -0.1472   19.6975 C   0  0  0  0  0  0  0  0  0  0  0  0
    3.3444    2.6278   20.4409 C   0  0  0  0  0  0  0  0  0  0  0  0
   12.3697   -1.3298   22.2224 C   0  0  0  0  0  0  0  0  0  0  0  0
    9.9496    0.5589   24.9527 C   0  0  0  0  0  0  0  0  0  0  0  0
    8.2504    0.0168   21.4265 C   0  0  0  0  0  0  0  0  0  0  0  0
    6.7908    3.7093   28.0388 C   0  0  0  0  0  0  0  0  0  0  0  0
    5.7802    2.6790   28.4483 C   0  0  0  0  0  0  0  0  0  0  0  0
    8.0155   -2.1541   22.4325 C   0  0  0  0  0  0  0  0  0  0  0  0
    6.9880   -1.9367   21.3575 C   0  0  0  0  0  0  0  0  0  0  0  0
    7.8737   -0.1194   23.8825 C   0  0  0  0  0  0  0  0  0  0  0  0
    6.1418    2.8363   26.9883 C   0  0  0  0  0  0  0  0  0  0  0  0
    8.6253   -0.7606   22.6923 C   0  0  3  0  0  0  0  0  0  0  0  0
    2.7566    5.0047   21.8501 C   0  0  0  0  0  0  0  0  0  0  0  0
    6.9809    1.7567   26.3423 C   0  0  0  0  0  0  0  0  0  0  0  0
    4.3767    3.9508   25.4379 N   0  0  0  0  0  0  0  0  0  0  0  0
    6.3072    0.3768   17.3417 N   0  0  0  0  0  0  0  0  0  0  0  0
    0.9782    3.0273   21.5562 N   0  0  0  0  0  0  0  0  0  0  0  0
    7.2305   -0.6898   20.7785 N   0  0  0  0  0  0  0  0  0  0  0  0
    8.6625    1.0133   24.4989 N   0  0  0  0  0  0  0  0  0  0  0  0
   10.3166    0.7434   26.1217 O   0  0  0  0  0  0  0  0  0  0  0  0
    8.8196    1.0408   21.0766 O   0  0  0  0  0  0  0  0  0  0  0  0
    1.8122    4.5166   19.5092 O   0  0  0  0  0  0  0  0  0  0  0  0
    6.9394    2.7496   23.9258 O   0  0  0  0  0  0  0  0  0  0  0  0
    8.8813    3.3083   25.4431 O   0  0  0  0  0  0  0  0  0  0  0  0
    2.0628    3.7877   20.7500 S   0  0  1  0  0  0  0  0  0  0  0  0
    7.8873    2.3819   24.9522 S   0  0  0  0  0  0  0  0  0  0  0  0
   13.4293   -2.1466   21.1128 Cl  0  0  0  0  0  0  0  0  0  0  0  0
    5.3127    0.4890   22.1568 H   0  0  0  0  0  0  0  0  0  0  0  0
   12.5191    0.5957   24.9706 H   0  0  0  0  0  0  0  0  0  0  0  0
    3.5274    2.1069   22.5215 H   0  0  0  0  0  0  0  0  0  0  0  0
   13.9921   -0.5215   23.3809 H   0  0  0  0  0  0  0  0  0  0  0  0
    3.3498    2.9707   18.3288 H   0  0  0  0  0  0  0  0  0  0  0  0
   10.6170   -2.0260   21.2272 H   0  0  0  0  0  0  0  0  0  0  0  0
    4.9155    1.7517   16.7470 H   0  0  0  0  0  0  0  0  0  0  0  0
    7.6461   -0.9756   18.1037 H   0  0  0  0  0  0  0  0  0  0  0  0
    6.5013    4.7518   28.1079 H   0  0  0  0  0  0  0  0  0  0  0  0
    7.8277    3.5266   28.2962 H   0  0  0  0  0  0  0  0  0  0  0  0
    6.1403    1.8063   28.9810 H   0  0  0  0  0  0  0  0  0  0  0  0
    4.8148    3.0325   28.7923 H   0  0  0  0  0  0  0  0  0  0  0  0
    7.5124   -2.5282   23.3379 H   0  0  0  0  0  0  0  0  0  0  0  0
    8.7585   -2.9105   22.1421 H   0  0  0  0  0  0  0  0  0  0  0  0
    7.0610   -2.7257   20.5719 H   0  0  0  0  0  0  0  0  0  0  0  0
    5.9524   -1.9968   21.7699 H   0  0  0  0  0  0  0  0  0  0  0  0
    6.8990    0.2933   23.5632 H   0  0  0  0  0  0  0  0  0  0  0  0
    7.6456   -0.8834   24.6465 H   0  0  0  0  0  0  0  0  0  0  0  0
    1.9876    5.7460   22.0727 H   0  0  0  0  0  0  0  0  0  0  0  0
    3.0774    4.5005   22.7630 H   0  0  0  0  0  0  0  0  0  0  0  0
    3.6071    5.4733   21.3527 H   0  0  0  0  0  0  0  0  0  0  0  0
    6.3532    0.9394   25.9765 H   0  0  0  0  0  0  0  0  0  0  0  0
    7.7115    1.3535   27.0488 H   0  0  0  0  0  0  0  0  0  0  0  0
    0.1681    3.6048   21.8004 H   0  0  0  0  0  0  0  0  0  0  0  0
  1 24  1  0  0  0  0
  1 28  3  0  0  0  0
  2  4  2  0  0  0  0
  2 10  1  0  0  0  0
  3  5  2  0  0  0  0
  3 12  1  0  0  0  0
  4 15  1  0  0  0  0
  5 16  1  0  0  0  0
  6 11  1  0  0  0  0
  6 15  2  0  0  0  0
  7 13  1  0  0  0  0
  7 16  2  0  0  0  0
  8 11  2  0  0  0  0
  8 29  1  0  0  0  0
  9 14  1  0  0  0  0
  9 29  2  0  0  0  0
 10 11  1  0  0  0  0
 10 14  2  0  0  0  0
 12 13  2  0  0  0  0
 12 17  1  0  0  0  0
 13 25  1  0  0  0  0
 14 31  1  0  0  0  0
 15 38  1  0  0  0  0
 16 40  1  0  0  0  0
 17 32  1  0  0  0  0
 17 33  2  0  0  0  0
 18 25  1  0  0  0  0
 18 31  1  0  0  0  0
 18 34  2  0  0  0  0
 19 20  1  0  0  0  0
 19 24  1  0  0  0  0
 20 24  1  0  0  0  0
 21 22  1  0  0  0  0
 21 25  1  0  0  0  0
 22 31  1  0  0  0  0
 23 25  1  0  0  0  0
 23 32  1  0  0  0  0
 24 27  1  0  0  0  0
 26 38  1  1  0  0  0
 27 39  1  0  0  0  0
 30 38  2  0  0  0  0
 32 39  1  0  0  0  0
 35 38  2  0  0  0  0
 36 39  2  0  0  0  0
 37 39  2  0  0  0  0
  2 41  1  0  0  0  0
  3 42  1  0  0  0  0
  4 43  1  0  0  0  0
  5 44  1  0  0  0  0
  6 45  1  0  0  0  0
  7 46  1  0  0  0  0
  8 47  1  0  0  0  0
  9 48  1  0  0  0  0
 19 49  1  0  0  0  0
 19 50  1  0  0  0  0
 20 51  1  0  0  0  0
 20 52  1  0  0  0  0
 21 53  1  0  0  0  0
 21 54  1  0  0  0  0
 22 55  1  0  0  0  0
 22 56  1  0  0  0  0
 23 57  1  0  0  0  0
 23 58  1  0  0  0  0
 26 59  1  0  0  0  0
 26 60  1  0  0  0  0
 26 61  1  0  0  0  0
 27 62  1  0  0  0  0
 27 63  1  0  0  0  0
 30 64  1  0  0  0  0
M  END
> <scaffold>
tetrahydroisoquinoline-5spiro-isoquinoline

> <compound>
EDJ-MED-7d88f880-3

> <compound_smiles>
CS(=N)(=O)c1ccc2c(c1)cncc2N3CCC4(C3=O)CN(C(=O)c5c4cc(cc5)Cl)S(=O)(=O)CC6(CC6)C#N

> <enantiomer_smiles>
C[S@@](=N)(=O)c1ccc2c(c1)cncc2N3CC[C@@]4(C3=O)CN(C(=O)c5c4cc(cc5)Cl)S(=O)(=O)CC6(CC6)C#N

> <clash_score>
0

> <docking_score>
3.4028234663852886e+38

> <overlap_score>
0.9851858615875244

> <MMFF_internal_energy>
90.51061360031039

> <docked_smiles>
C[S@@](=N)(=O)c1ccc2c(c1)cncc2N3CC[C@@]4(C3=O)CN(C(=O)c5c4cc(cc5)Cl)S(=O)(=O)CC6(CC6)C#N

$$$$
LUO-POS-b5068a05-1_1
  -OEChem-01042202313D

 66 71  0     1  0  0  0  0  0999 V2000
    6.5808    4.6065   26.6465 C   0  0  0  0  0  0  0  0  0  0  0  0
    3.3444    2.6278   20.4409 C   0  0  0  0  0  0  0  0  0  0  0  0
    3.8974    1.9290   21.5048 C   0  0  0  0  0  0  0  0  0  0  0  0
    3.7877    2.4205   19.1658 C   0  0  0  0  0  0  0  0  0  0  0  0
    4.8986    1.0232   21.2985 C   0  0  0  0  0  0  0  0  0  0  0  0
   12.0781    0.0316   24.1532 C   0  0  0  0  0  0  0  0  0  0  0  0
   12.9147   -0.6032   23.2559 C   0  0  0  0  0  0  0  0  0  0  0  0
   11.0005   -1.4332   22.0435 C   0  0  0  0  0  0  0  0  0  0  0  0
    5.3288    1.2339   17.6062 C   0  0  0  0  0  0  0  0  0  0  0  0
    6.8449   -0.2893   18.3747 C   0  0  0  0  0  0  0  0  0  0  0  0
    4.8238    1.4906   18.9051 C   0  0  0  0  0  0  0  0  0  0  0  0
    5.3995    0.7732   19.9944 C   0  0  0  0  0  0  0  0  0  0  0  0
   10.7056   -0.0626   23.9890 C   0  0  0  0  0  0  0  0  0  0  0  0
   10.1421   -0.7766   22.9242 C   0  0  0  0  0  0  0  0  0  0  0  0
    6.4452   -0.1472   19.6975 C   0  0  0  0  0  0  0  0  0  0  0  0
   12.3697   -1.3298   22.2224 C   0  0  0  0  0  0  0  0  0  0  0  0
    8.2504    0.0168   21.4265 C   0  0  0  0  0  0  0  0  0  0  0  0
    6.9880   -1.9367   21.3575 C   0  0  0  0  0  0  0  0  0  0  0  0
    9.9496    0.5589   24.9527 C   0  0  0  0  0  0  0  0  0  0  0  0
    4.9295    2.8632   27.4144 C   0  0  0  0  0  0  0  0  0  0  0  0
    4.7453    3.0317   25.9352 C   0  0  0  0  0  0  0  0  0  0  0  0
    7.8737   -0.1194   23.8825 C   0  0  0  0  0  0  0  0  0  0  0  0
    6.1094    3.2492   26.5509 C   0  0  0  0  0  0  0  0  0  0  0  0
    8.6253   -0.7606   22.6923 C   0  0  3  0  0  0  0  0  0  0  0  0
    4.6529   -3.9104   22.6744 C   0  0  0  0  0  0  0  0  0  0  0  0
    6.1463   -5.1460   21.0774 C   0  0  0  0  0  0  0  0  0  0  0  0
    7.1780    2.2090   26.2994 C   0  0  0  0  0  0  0  0  0  0  0  0
    6.9607    5.7001   26.7235 N   0  0  0  0  0  0  0  0  0  0  0  0
    6.3072    0.3768   17.3417 N   0  0  0  0  0  0  0  0  0  0  0  0
    8.0155   -2.1541   22.4325 N   0  0  0  0  0  0  0  0  0  0  0  0
    7.2305   -0.6898   20.7785 N   0  0  0  0  0  0  0  0  0  0  0  0
    8.6625    1.0133   24.4989 N   0  0  3  0  0  0  0  0  0  0  0  0
    6.0566   -2.8036   21.1563 N   0  0  0  0  0  0  0  0  0  0  0  0
    5.9771   -3.9838   21.9947 N   0  3  0  0  0  0  0  0  0  0  0  0
    8.8118    1.0482   21.0725 O   0  0  0  0  0  0  0  0  0  0  0  0
    7.0308    2.7628   23.7502 O   0  0  0  0  0  0  0  0  0  0  0  0
    9.1076    3.4278   25.0270 O   0  0  0  0  0  0  0  0  0  0  0  0
    8.0252    2.5034   24.7684 S   0  0  0  0  0  0  0  0  0  0  0  0
   13.4283   -2.1411   21.1075 Cl  0  0  0  0  0  0  0  0  0  0  0  0
    2.5443    3.3508   20.6368 H   0  0  0  0  0  0  0  0  0  0  0  0
    3.5189    2.1137   22.5166 H   0  0  0  0  0  0  0  0  0  0  0  0
    3.3421    2.9744   18.3363 H   0  0  0  0  0  0  0  0  0  0  0  0
    5.3131    0.4893   22.1569 H   0  0  0  0  0  0  0  0  0  0  0  0
   12.5034    0.5941   24.9769 H   0  0  0  0  0  0  0  0  0  0  0  0
   13.9924   -0.5201   23.3801 H   0  0  0  0  0  0  0  0  0  0  0  0
   10.6046   -2.0225   21.2271 H   0  0  0  0  0  0  0  0  0  0  0  0
    4.9151    1.7511   16.7471 H   0  0  0  0  0  0  0  0  0  0  0  0
    7.6455   -0.9765   18.1038 H   0  0  0  0  0  0  0  0  0  0  0  0
    9.7611   -0.1291   25.8168 H   0  0  0  0  0  0  0  0  0  0  0  0
   10.4952    1.4390   25.3830 H   0  0  0  0  0  0  0  0  0  0  0  0
    4.4868    3.6101   28.0638 H   0  0  0  0  0  0  0  0  0  0  0  0
    4.8875    1.8569   27.8150 H   0  0  0  0  0  0  0  0  0  0  0  0
    4.5789    2.1379   25.3448 H   0  0  0  0  0  0  0  0  0  0  0  0
    4.1784    3.8909   25.5950 H   0  0  0  0  0  0  0  0  0  0  0  0
    6.8912    0.2729   23.5655 H   0  0  0  0  0  0  0  0  0  0  0  0
    7.6756   -0.8769   24.6600 H   0  0  0  0  0  0  0  0  0  0  0  0
    3.8806   -3.9250   21.9032 H   0  0  0  0  0  0  0  0  0  0  0  0
    4.5668   -4.7769   23.3328 H   0  0  0  0  0  0  0  0  0  0  0  0
    4.6210   -2.9798   23.2441 H   0  0  0  0  0  0  0  0  0  0  0  0
    5.3286   -5.1227   20.3547 H   0  0  0  0  0  0  0  0  0  0  0  0
    7.1126   -5.0415   20.5804 H   0  0  0  0  0  0  0  0  0  0  0  0
    6.1113   -6.0554   21.6803 H   0  0  0  0  0  0  0  0  0  0  0  0
    6.7431    1.2075   26.2397 H   0  0  0  0  0  0  0  0  0  0  0  0
    7.9309    2.2218   27.0922 H   0  0  0  0  0  0  0  0  0  0  0  0
    5.3996   -2.6130   20.4314 H   0  0  0  0  0  0  0  0  0  0  0  0
    6.7327   -3.9723   22.6929 H   0  0  0  0  0  0  0  0  0  0  0  0
  1 23  1  0  0  0  0
  1 28  3  0  0  0  0
  2  3  2  0  0  0  0
  2  4  1  0  0  0  0
  3  5  1  0  0  0  0
  4 11  2  0  0  0  0
  5 12  2  0  0  0  0
  6  7  2  0  0  0  0
  6 13  1  0  0  0  0
  7 16  1  0  0  0  0
  8 14  1  0  0  0  0
  8 16  2  0  0  0  0
  9 11  1  0  0  0  0
  9 29  2  0  0  0  0
 10 15  2  0  0  0  0
 10 29  1  0  0  0  0
 11 12  1  0  0  0  0
 12 15  1  0  0  0  0
 13 14  2  0  0  0  0
 13 19  1  0  0  0  0
 14 24  1  0  0  0  0
 15 31  1  0  0  0  0
 16 39  1  0  0  0  0
 17 24  1  0  0  0  0
 17 31  1  0  0  0  0
 17 35  2  0  0  0  0
 18 30  2  0  0  0  0
 18 31  1  0  0  0  0
 18 33  1  0  0  0  0
 19 32  1  0  0  0  0
 20 21  1  0  0  0  0
 20 23  1  0  0  0  0
 21 23  1  0  0  0  0
 22 24  1  0  0  0  0
 22 32  1  0  0  0  0
 23 27  1  0  0  0  0
 24 30  1  0  0  0  0
 25 34  1  0  0  0  0
 26 34  1  0  0  0  0
 27 38  1  0  0  0  0
 32 38  1  0  0  0  0
 33 34  1  0  0  0  0
 36 38  2  0  0  0  0
 37 38  2  0  0  0  0
  2 40  1  0  0  0  0
  3 41  1  0  0  0  0
  4 42  1  0  0  0  0
  5 43  1  0  0  0  0
  6 44  1  0  0  0  0
  7 45  1  0  0  0  0
  8 46  1  0  0  0  0
  9 47  1  0  0  0  0
 10 48  1  0  0  0  0
 19 49  1  0  0  0  0
 19 50  1  0  0  0  0
 20 51  1  0  0  0  0
 20 52  1  0  0  0  0
 21 53  1  0  0  0  0
 21 54  1  0  0  0  0
 22 55  1  0  0  0  0
 22 56  1  0  0  0  0
 25 57  1  0  0  0  0
 25 58  1  0  0  0  0
 25 59  1  0  0  0  0
 26 60  1  0  0  0  0
 26 61  1  0  0  0  0
 26 62  1  0  0  0  0
 27 63  1  0  0  0  0
 27 64  1  0  0  0  0
 33 65  1  0  0  0  0
 34 66  1  0  0  0  0
M  CHG  1  34   1
M  END
> <scaffold>
tetrahydroisoquinoline-5spiro-isoquinoline

> <compound>
LUO-POS-b5068a05-1

> <compound_smiles>
CN(C)NC1=NC2(CN(Cc3c2cc(cc3)Cl)S(=O)(=O)CC4(CC4)C#N)C(=O)N1c5cncc6c5cccc6

> <enantiomer_smiles>
CN(C)NC1=N[C@@]2(C[N@@](Cc3c2cc(cc3)Cl)S(=O)(=O)CC4(CC4)C#N)C(=O)N1c5cncc6c5cccc6

> <clash_score>
1.3988019510082421

> <docking_score>
3.4028234663852886e+38

> <overlap_score>
1.0

> <MMFF_internal_energy>
224.51306221970916

> <docked_smiles>
C[NH+](C)NC1=N[C@@]2(C[N@@](Cc3c2cc(cc3)Cl)S(=O)(=O)CC4(CC4)C#N)C(=O)N1c5cncc6c5cccc6

$$$$
LUO-POS-eaf50f21-3_1
  -OEChem-01042202313D

 63 68  0     1  0  0  0  0  0999 V2000
    9.3387    5.5690   24.0147 C   0  0  0  0  0  0  0  0  0  0  0  0
    3.3444    2.6278   20.4409 C   0  0  0  0  0  0  0  0  0  0  0  0
    3.8974    1.9290   21.5048 C   0  0  0  0  0  0  0  0  0  0  0  0
    3.7877    2.4205   19.1658 C   0  0  0  0  0  0  0  0  0  0  0  0
    4.8986    1.0232   21.2985 C   0  0  0  0  0  0  0  0  0  0  0  0
   12.0781    0.0316   24.1532 C   0  0  0  0  0  0  0  0  0  0  0  0
   12.9147   -0.6032   23.2559 C   0  0  0  0  0  0  0  0  0  0  0  0
   11.0005   -1.4332   22.0435 C   0  0  0  0  0  0  0  0  0  0  0  0
    5.3288    1.2339   17.6062 C   0  0  0  0  0  0  0  0  0  0  0  0
    6.8449   -0.2893   18.3747 C   0  0  0  0  0  0  0  0  0  0  0  0
    4.8238    1.4906   18.9051 C   0  0  0  0  0  0  0  0  0  0  0  0
    5.3995    0.7732   19.9944 C   0  0  0  0  0  0  0  0  0  0  0  0
   10.7056   -0.0626   23.9890 C   0  0  0  0  0  0  0  0  0  0  0  0
   10.1421   -0.7766   22.9242 C   0  0  0  0  0  0  0  0  0  0  0  0
    6.4452   -0.1472   19.6975 C   0  0  0  0  0  0  0  0  0  0  0  0
   12.3697   -1.3298   22.2224 C   0  0  0  0  0  0  0  0  0  0  0  0
    8.2504    0.0168   21.4265 C   0  0  0  0  0  0  0  0  0  0  0  0
    6.9880   -1.9367   21.3575 C   0  0  0  0  0  0  0  0  0  0  0  0
    5.9086   -4.0519   21.7978 C   0  0  0  0  0  0  0  0  0  0  0  0
    9.9496    0.5589   24.9527 C   0  0  0  0  0  0  0  0  0  0  0  0
    7.3836    5.9465   25.5610 C   0  0  0  0  0  0  0  0  0  0  0  0
    6.8278    5.5195   24.2346 C   0  0  0  0  0  0  0  0  0  0  0  0
    7.8737   -0.1194   23.8825 C   0  0  0  0  0  0  0  0  0  0  0  0
    8.1844    5.0177   24.6762 C   0  0  0  0  0  0  0  0  0  0  0  0
    8.6253   -0.7606   22.6923 C   0  0  3  0  0  0  0  0  0  0  0  0
    4.7389   -4.8609   21.3015 C   0  0  0  0  0  0  0  0  0  0  0  0
    8.3070    3.5687   25.0915 C   0  0  0  0  0  0  0  0  0  0  0  0
   10.2687    6.0132   23.4819 N   0  0  0  0  0  0  0  0  0  0  0  0
    6.3072    0.3768   17.3417 N   0  0  0  0  0  0  0  0  0  0  0  0
    7.2305   -0.6898   20.7785 N   0  0  0  0  0  0  0  0  0  0  0  0
    8.6625    1.0133   24.4989 N   0  0  3  0  0  0  0  0  0  0  0  0
    8.0155   -2.1541   22.4325 N   0  3  0  0  0  0  0  0  0  0  0  0
    6.0219   -2.8434   21.1379 N   0  0  0  0  0  0  0  0  0  0  0  0
    8.7970    1.0627   21.0518 O   0  0  0  0  0  0  0  0  0  0  0  0
    6.6594   -4.4785   22.6722 O   0  0  0  0  0  0  0  0  0  0  0  0
    7.3879    2.5517   22.8671 O   0  0  0  0  0  0  0  0  0  0  0  0
    9.8856    2.8059   23.1539 O   0  0  0  0  0  0  0  0  0  0  0  0
    8.5755    2.5113   23.6922 S   0  0  0  0  0  0  0  0  0  0  0  0
   13.4280   -2.1428   21.1085 Cl  0  0  0  0  0  0  0  0  0  0  0  0
    2.5446    3.3512   20.6368 H   0  0  0  0  0  0  0  0  0  0  0  0
    3.5197    2.1139   22.5168 H   0  0  0  0  0  0  0  0  0  0  0  0
    3.3421    2.9744   18.3362 H   0  0  0  0  0  0  0  0  0  0  0  0
    5.3160    0.4868   22.1541 H   0  0  0  0  0  0  0  0  0  0  0  0
   12.5038    0.5927   24.9777 H   0  0  0  0  0  0  0  0  0  0  0  0
   13.9924   -0.5219   23.3813 H   0  0  0  0  0  0  0  0  0  0  0  0
   10.6048   -2.0225   21.2271 H   0  0  0  0  0  0  0  0  0  0  0  0
    4.9145    1.7511   16.7473 H   0  0  0  0  0  0  0  0  0  0  0  0
    7.6462   -0.9771   18.1096 H   0  0  0  0  0  0  0  0  0  0  0  0
    9.7613   -0.1285   25.8164 H   0  0  0  0  0  0  0  0  0  0  0  0
   10.4948    1.4393   25.3810 H   0  0  0  0  0  0  0  0  0  0  0  0
    7.7011    6.9781   25.6637 H   0  0  0  0  0  0  0  0  0  0  0  0
    6.9214    5.5414   26.4538 H   0  0  0  0  0  0  0  0  0  0  0  0
    5.9924    4.8288   24.2391 H   0  0  0  0  0  0  0  0  0  0  0  0
    6.7726    6.2658   23.4503 H   0  0  0  0  0  0  0  0  0  0  0  0
    6.8949    0.2715   23.5586 H   0  0  0  0  0  0  0  0  0  0  0  0
    7.6743   -0.8813   24.6531 H   0  0  0  0  0  0  0  0  0  0  0  0
    5.0620   -5.4995   20.4745 H   0  0  0  0  0  0  0  0  0  0  0  0
    3.9551   -4.1832   20.9526 H   0  0  0  0  0  0  0  0  0  0  0  0
    4.3384   -5.4998   22.0939 H   0  0  0  0  0  0  0  0  0  0  0  0
    7.3940    3.2245   25.5851 H   0  0  0  0  0  0  0  0  0  0  0  0
    9.1522    3.4262   25.7702 H   0  0  0  0  0  0  0  0  0  0  0  0
    8.2030   -2.9872   22.8301 H   0  0  0  0  0  0  0  0  0  0  0  0
    5.3351   -2.6169   20.4289 H   0  0  0  0  0  0  0  0  0  0  0  0
  1 24  1  0  0  0  0
  1 28  3  0  0  0  0
  2  3  2  0  0  0  0
  2  4  1  0  0  0  0
  3  5  1  0  0  0  0
  4 11  2  0  0  0  0
  5 12  2  0  0  0  0
  6  7  2  0  0  0  0
  6 13  1  0  0  0  0
  7 16  1  0  0  0  0
  8 14  1  0  0  0  0
  8 16  2  0  0  0  0
  9 11  1  0  0  0  0
  9 29  2  0  0  0  0
 10 15  2  0  0  0  0
 10 29  1  0  0  0  0
 11 12  1  0  0  0  0
 12 15  1  0  0  0  0
 13 14  2  0  0  0  0
 13 20  1  0  0  0  0
 14 25  1  0  0  0  0
 15 30  1  0  0  0  0
 16 39  1  0  0  0  0
 17 25  1  0  0  0  0
 17 30  1  0  0  0  0
 17 34  2  0  0  0  0
 18 30  1  0  0  0  0
 18 32  2  0  0  0  0
 18 33  1  0  0  0  0
 19 26  1  0  0  0  0
 19 33  1  0  0  0  0
 19 35  2  0  0  0  0
 20 31  1  0  0  0  0
 21 22  1  0  0  0  0
 21 24  1  0  0  0  0
 22 24  1  0  0  0  0
 23 25  1  0  0  0  0
 23 31  1  0  0  0  0
 24 27  1  0  0  0  0
 25 32  1  0  0  0  0
 27 38  1  0  0  0  0
 31 38  1  0  0  0  0
 36 38  2  0  0  0  0
 37 38  2  0  0  0  0
  2 40  1  0  0  0  0
  3 41  1  0  0  0  0
  4 42  1  0  0  0  0
  5 43  1  0  0  0  0
  6 44  1  0  0  0  0
  7 45  1  0  0  0  0
  8 46  1  0  0  0  0
  9 47  1  0  0  0  0
 10 48  1  0  0  0  0
 20 49  1  0  0  0  0
 20 50  1  0  0  0  0
 21 51  1  0  0  0  0
 21 52  1  0  0  0  0
 22 53  1  0  0  0  0
 22 54  1  0  0  0  0
 23 55  1  0  0  0  0
 23 56  1  0  0  0  0
 26 57  1  0  0  0  0
 26 58  1  0  0  0  0
 26 59  1  0  0  0  0
 27 60  1  0  0  0  0
 27 61  1  0  0  0  0
 32 62  1  0  0  0  0
 33 63  1  0  0  0  0
M  CHG  1  32   1
M  END
> <scaffold>
tetrahydroisoquinoline-5spiro-isoquinoline

> <compound>
LUO-POS-eaf50f21-3

> <compound_smiles>
CC(=O)NC1=NC2(CN(Cc3c2cc(cc3)Cl)S(=O)(=O)CC4(CC4)C#N)C(=O)N1c5cncc6c5cccc6

> <enantiomer_smiles>
CC(=O)NC1=N[C@@]2(C[N@@](Cc3c2cc(cc3)Cl)S(=O)(=O)CC4(CC4)C#N)C(=O)N1c5cncc6c5cccc6

> <clash_score>
0.8089422160010409

> <docking_score>
3.4028234663852886e+38

> <overlap_score>
1.0

> <MMFF_internal_energy>
-25.985151220317285

> <docked_smiles>
CC(=O)NC1=[NH+][C@@]2(C[N@@](Cc3c2cc(cc3)Cl)S(=O)(=O)CC4(CC4)C#N)C(=O)N1c5cncc6c5cccc6

$$$$
ALP-POS-ecbed2ba-2_1
  -OEChem-01042202313D

 67 72  0     1  0  0  0  0  0999 V2000
    5.2141    1.3095   27.0682 C   0  0  0  0  0  0  0  0  0  0  0  0
    3.3444    2.6278   20.4409 C   0  0  0  0  0  0  0  0  0  0  0  0
    3.8974    1.9290   21.5048 C   0  0  0  0  0  0  0  0  0  0  0  0
    3.7877    2.4205   19.1658 C   0  0  0  0  0  0  0  0  0  0  0  0
    4.8986    1.0232   21.2985 C   0  0  0  0  0  0  0  0  0  0  0  0
   12.0781    0.0316   24.1532 C   0  0  0  0  0  0  0  0  0  0  0  0
   12.9147   -0.6032   23.2559 C   0  0  0  0  0  0  0  0  0  0  0  0
   11.0005   -1.4332   22.0435 C   0  0  0  0  0  0  0  0  0  0  0  0
    5.3288    1.2339   17.6062 C   0  0  0  0  0  0  0  0  0  0  0  0
    6.8449   -0.2893   18.3747 C   0  0  0  0  0  0  0  0  0  0  0  0
    4.8238    1.4906   18.9051 C   0  0  0  0  0  0  0  0  0  0  0  0
    5.3995    0.7732   19.9944 C   0  0  0  0  0  0  0  0  0  0  0  0
   10.7056   -0.0626   23.9890 C   0  0  0  0  0  0  0  0  0  0  0  0
   10.1421   -0.7766   22.9242 C   0  0  0  0  0  0  0  0  0  0  0  0
    6.4452   -0.1472   19.6975 C   0  0  0  0  0  0  0  0  0  0  0  0
   12.3697   -1.3298   22.2224 C   0  0  0  0  0  0  0  0  0  0  0  0
    8.2504    0.0168   21.4265 C   0  0  0  0  0  0  0  0  0  0  0  0
    9.9496    0.5589   24.9527 C   0  0  0  0  0  0  0  0  0  0  0  0
    8.0155   -2.1541   22.4325 C   0  0  0  0  0  0  0  0  0  0  0  0
    6.2986    0.3214   29.0362 C   0  0  0  0  0  0  0  0  0  0  0  0
    6.6673    2.7679   28.4051 C   0  0  0  0  0  0  0  0  0  0  0  0
    6.9880   -1.9367   21.3575 C   0  0  0  0  0  0  0  0  0  0  0  0
    7.8737   -0.1194   23.8825 C   0  0  0  0  0  0  0  0  0  0  0  0
    7.4639    0.2855   30.0158 C   0  0  0  0  0  0  0  0  0  0  0  0
    7.8639    2.9393   29.3312 C   0  0  0  0  0  0  0  0  0  0  0  0
    6.4630    1.3286   27.8715 C   0  0  0  0  0  0  0  0  0  0  0  0
    8.6253   -0.7606   22.6923 C   0  0  3  0  0  0  0  0  0  0  0  0
    7.6200    0.9150   26.9438 C   0  0  0  0  0  0  0  0  0  0  0  0
    4.2384    1.2947   26.4405 N   0  0  0  0  0  0  0  0  0  0  0  0
    6.3072    0.3768   17.3417 N   0  0  0  0  0  0  0  0  0  0  0  0
    7.2305   -0.6898   20.7785 N   0  0  0  0  0  0  0  0  0  0  0  0
    8.6625    1.0133   24.4989 N   0  0  3  0  0  0  0  0  0  0  0  0
    8.8314    1.0394   21.0790 O   0  0  0  0  0  0  0  0  0  0  0  0
    9.0663    1.8408   31.3779 O   0  0  0  0  0  0  0  0  0  0  0  0
    6.5818    2.2502   31.5132 O   0  0  0  0  0  0  0  0  0  0  0  0
    6.4550    2.2095   24.9959 O   0  0  0  0  0  0  0  0  0  0  0  0
    8.5936    3.1365   25.9719 O   0  0  0  0  0  0  0  0  0  0  0  0
    7.7585    1.8766   30.7526 S   0  0  0  0  0  0  0  0  0  0  0  0
    7.7725    2.0180   25.5623 S   0  0  0  0  0  0  0  0  0  0  0  0
   13.4285   -2.1410   21.1076 Cl  0  0  0  0  0  0  0  0  0  0  0  0
    2.5443    3.3508   20.6368 H   0  0  0  0  0  0  0  0  0  0  0  0
    3.5189    2.1137   22.5166 H   0  0  0  0  0  0  0  0  0  0  0  0
    3.3421    2.9744   18.3363 H   0  0  0  0  0  0  0  0  0  0  0  0
    5.3131    0.4893   22.1569 H   0  0  0  0  0  0  0  0  0  0  0  0
   12.5038    0.5986   24.9731 H   0  0  0  0  0  0  0  0  0  0  0  0
   13.9925   -0.5165   23.3773 H   0  0  0  0  0  0  0  0  0  0  0  0
   10.6052   -2.0169   21.2237 H   0  0  0  0  0  0  0  0  0  0  0  0
    4.9151    1.7511   16.7471 H   0  0  0  0  0  0  0  0  0  0  0  0
    7.6455   -0.9765   18.1038 H   0  0  0  0  0  0  0  0  0  0  0  0
    9.7866   -0.1187   25.8304 H   0  0  0  0  0  0  0  0  0  0  0  0
   10.4816    1.4567   25.3600 H   0  0  0  0  0  0  0  0  0  0  0  0
    7.5167   -2.5459   23.3332 H   0  0  0  0  0  0  0  0  0  0  0  0
    8.7666   -2.9029   22.1426 H   0  0  0  0  0  0  0  0  0  0  0  0
    6.1505   -0.6900   28.6344 H   0  0  0  0  0  0  0  0  0  0  0  0
    5.3806    0.5590   29.5918 H   0  0  0  0  0  0  0  0  0  0  0  0
    5.7614    3.0865   28.9400 H   0  0  0  0  0  0  0  0  0  0  0  0
    6.7765    3.4642   27.5629 H   0  0  0  0  0  0  0  0  0  0  0  0
    7.0601   -2.7250   20.5715 H   0  0  0  0  0  0  0  0  0  0  0  0
    5.9530   -1.9963   21.7709 H   0  0  0  0  0  0  0  0  0  0  0  0
    6.8882    0.2643   23.5640 H   0  0  0  0  0  0  0  0  0  0  0  0
    7.6667   -0.8657   24.6729 H   0  0  0  0  0  0  0  0  0  0  0  0
    7.2534   -0.4102   30.8345 H   0  0  0  0  0  0  0  0  0  0  0  0
    8.3914   -0.0349   29.5332 H   0  0  0  0  0  0  0  0  0  0  0  0
    8.8069    2.7220   28.8220 H   0  0  0  0  0  0  0  0  0  0  0  0
    7.9132    3.9671   29.7052 H   0  0  0  0  0  0  0  0  0  0  0  0
    7.4578   -0.0879   26.5391 H   0  0  0  0  0  0  0  0  0  0  0  0
    8.5744    0.9319   27.4769 H   0  0  0  0  0  0  0  0  0  0  0  0
  1 26  1  0  0  0  0
  1 29  3  0  0  0  0
  2  3  2  0  0  0  0
  2  4  1  0  0  0  0
  3  5  1  0  0  0  0
  4 11  2  0  0  0  0
  5 12  2  0  0  0  0
  6  7  2  0  0  0  0
  6 13  1  0  0  0  0
  7 16  1  0  0  0  0
  8 14  1  0  0  0  0
  8 16  2  0  0  0  0
  9 11  1  0  0  0  0
  9 30  2  0  0  0  0
 10 15  2  0  0  0  0
 10 30  1  0  0  0  0
 11 12  1  0  0  0  0
 12 15  1  0  0  0  0
 13 14  2  0  0  0  0
 13 18  1  0  0  0  0
 14 27  1  0  0  0  0
 15 31  1  0  0  0  0
 16 40  1  0  0  0  0
 17 27  1  0  0  0  0
 17 31  1  0  0  0  0
 17 33  2  0  0  0  0
 18 32  1  0  0  0  0
 19 22  1  0  0  0  0
 19 27  1  0  0  0  0
 20 24  1  0  0  0  0
 20 26  1  0  0  0  0
 21 25  1  0  0  0  0
 21 26  1  0  0  0  0
 22 31  1  0  0  0  0
 23 27  1  0  0  0  0
 23 32  1  0  0  0  0
 24 38  1  0  0  0  0
 25 38  1  0  0  0  0
 26 28  1  0  0  0  0
 28 39  1  0  0  0  0
 32 39  1  0  0  0  0
 34 38  2  0  0  0  0
 35 38  2  0  0  0  0
 36 39  2  0  0  0  0
 37 39  2  0  0  0  0
  2 41  1  0  0  0  0
  3 42  1  0  0  0  0
  4 43  1  0  0  0  0
  5 44  1  0  0  0  0
  6 45  1  0  0  0  0
  7 46  1  0  0  0  0
  8 47  1  0  0  0  0
  9 48  1  0  0  0  0
 10 49  1  0  0  0  0
 18 50  1  0  0  0  0
 18 51  1  0  0  0  0
 19 52  1  0  0  0  0
 19 53  1  0  0  0  0
 20 54  1  0  0  0  0
 20 55  1  0  0  0  0
 21 56  1  0  0  0  0
 21 57  1  0  0  0  0
 22 58  1  0  0  0  0
 22 59  1  0  0  0  0
 23 60  1  0  0  0  0
 23 61  1  0  0  0  0
 24 62  1  0  0  0  0
 24 63  1  0  0  0  0
 25 64  1  0  0  0  0
 25 65  1  0  0  0  0
 28 66  1  0  0  0  0
 28 67  1  0  0  0  0
M  END
> <scaffold>
tetrahydroisoquinoline-5spiro-isoquinoline

> <compound>
ALP-POS-ecbed2ba-2

> <compound_smiles>
c1ccc2c(c1)cncc2N3CCC4(C3=O)CN(Cc5c4cc(cc5)Cl)S(=O)(=O)CC6(CCS(=O)(=O)CC6)C#N

> <enantiomer_smiles>
c1ccc2c(c1)cncc2N3CC[C@]4(C3=O)C[N@](Cc5c4cc(cc5)Cl)S(=O)(=O)CC6(CCS(=O)(=O)CC6)C#N

> <clash_score>
0

> <docking_score>
3.4028234663852886e+38

> <overlap_score>
0.962553083896637

> <MMFF_internal_energy>
74.81588183113422

> <docked_smiles>
c1ccc2c(c1)cncc2N3CC[C@]4(C3=O)C[N@](Cc5c4cc(cc5)Cl)S(=O)(=O)CC6(CCS(=O)(=O)CC6)C#N

$$$$
EDJ-MED-7d88f880-3_2
  -OEChem-01042202313D

 64 69  0     1  0  0  0  0  0999 V2000
    6.8786    3.9747   27.4975 C   0  0  0  0  0  0  0  0  0  0  0  0
    4.8986    1.0232   21.2985 C   0  0  0  0  0  0  0  0  0  0  0  0
   12.0781    0.0316   24.1532 C   0  0  0  0  0  0  0  0  0  0  0  0
    3.8974    1.9290   21.5048 C   0  0  0  0  0  0  0  0  0  0  0  0
   12.9147   -0.6032   23.2559 C   0  0  0  0  0  0  0  0  0  0  0  0
    3.7877    2.4205   19.1658 C   0  0  0  0  0  0  0  0  0  0  0  0
   11.0005   -1.4332   22.0435 C   0  0  0  0  0  0  0  0  0  0  0  0
    5.3288    1.2339   17.6062 C   0  0  0  0  0  0  0  0  0  0  0  0
    6.8449   -0.2893   18.3747 C   0  0  0  0  0  0  0  0  0  0  0  0
    5.3995    0.7732   19.9944 C   0  0  0  0  0  0  0  0  0  0  0  0
    4.8238    1.4906   18.9051 C   0  0  0  0  0  0  0  0  0  0  0  0
   10.7056   -0.0626   23.9890 C   0  0  0  0  0  0  0  0  0  0  0  0
   10.1421   -0.7766   22.9242 C   0  0  0  0  0  0  0  0  0  0  0  0
    6.4452   -0.1472   19.6975 C   0  0  0  0  0  0  0  0  0  0  0  0
    3.3444    2.6278   20.4409 C   0  0  0  0  0  0  0  0  0  0  0  0
   12.3697   -1.3298   22.2224 C   0  0  0  0  0  0  0  0  0  0  0  0
    9.9496    0.5589   24.9527 C   0  0  0  0  0  0  0  0  0  0  0  0
    8.2504    0.0168   21.4265 C   0  0  0  0  0  0  0  0  0  0  0  0
    4.8952    2.4369   27.7362 C   0  0  0  0  0  0  0  0  0  0  0  0
    4.7697    3.1246   26.4089 C   0  0  0  0  0  0  0  0  0  0  0  0
    8.0155   -2.1541   22.4325 C   0  0  0  0  0  0  0  0  0  0  0  0
    6.9880   -1.9367   21.3575 C   0  0  0  0  0  0  0  0  0  0  0  0
    7.8737   -0.1194   23.8825 C   0  0  0  0  0  0  0  0  0  0  0  0
    6.1408    2.8494   26.9845 C   0  0  0  0  0  0  0  0  0  0  0  0
    8.6253   -0.7606   22.6923 C   0  0  3  0  0  0  0  0  0  0  0  0
    0.7344    2.8647   21.4957 C   0  0  0  0  0  0  0  0  0  0  0  0
    6.9774    1.7647   26.3436 C   0  0  0  0  0  0  0  0  0  0  0  0
    7.4732    4.8813   27.9107 N   0  0  0  0  0  0  0  0  0  0  0  0
    6.3072    0.3768   17.3417 N   0  0  0  0  0  0  0  0  0  0  0  0
    2.5951    4.7570   21.8371 N   0  0  0  0  0  0  0  0  0  0  0  0
    7.2305   -0.6898   20.7785 N   0  0  0  0  0  0  0  0  0  0  0  0
    8.6625    1.0133   24.4989 N   0  0  0  0  0  0  0  0  0  0  0  0
   10.3166    0.7434   26.1217 O   0  0  0  0  0  0  0  0  0  0  0  0
    8.8196    1.0408   21.0766 O   0  0  0  0  0  0  0  0  0  0  0  0
    1.5352    4.2102   19.4551 O   0  0  0  0  0  0  0  0  0  0  0  0
    6.9435    2.7217   23.9125 O   0  0  0  0  0  0  0  0  0  0  0  0
    8.8645    3.3288   25.4379 O   0  0  0  0  0  0  0  0  0  0  0  0
    2.0628    3.7877   20.7500 S   0  0  2  0  0  0  0  0  0  0  0  0
    7.8873    2.3819   24.9522 S   0  0  0  0  0  0  0  0  0  0  0  0
   13.4293   -2.1466   21.1128 Cl  0  0  0  0  0  0  0  0  0  0  0  0
    5.3127    0.4890   22.1568 H   0  0  0  0  0  0  0  0  0  0  0  0
   12.5191    0.5957   24.9706 H   0  0  0  0  0  0  0  0  0  0  0  0
    3.5274    2.1069   22.5215 H   0  0  0  0  0  0  0  0  0  0  0  0
   13.9921   -0.5215   23.3809 H   0  0  0  0  0  0  0  0  0  0  0  0
    3.3498    2.9707   18.3288 H   0  0  0  0  0  0  0  0  0  0  0  0
   10.6170   -2.0260   21.2272 H   0  0  0  0  0  0  0  0  0  0  0  0
    4.9155    1.7517   16.7470 H   0  0  0  0  0  0  0  0  0  0  0  0
    7.6461   -0.9756   18.1037 H   0  0  0  0  0  0  0  0  0  0  0  0
    4.6058    2.9945   28.6199 H   0  0  0  0  0  0  0  0  0  0  0  0
    4.6427    1.3839   27.7828 H   0  0  0  0  0  0  0  0  0  0  0  0
    4.4321    2.5321   25.5663 H   0  0  0  0  0  0  0  0  0  0  0  0
    4.3954    4.1421   26.4046 H   0  0  0  0  0  0  0  0  0  0  0  0
    7.5124   -2.5282   23.3379 H   0  0  0  0  0  0  0  0  0  0  0  0
    8.7585   -2.9105   22.1421 H   0  0  0  0  0  0  0  0  0  0  0  0
    7.0610   -2.7257   20.5719 H   0  0  0  0  0  0  0  0  0  0  0  0
    5.9524   -1.9968   21.7699 H   0  0  0  0  0  0  0  0  0  0  0  0
    6.8990    0.2933   23.5632 H   0  0  0  0  0  0  0  0  0  0  0  0
    7.6456   -0.8834   24.6465 H   0  0  0  0  0  0  0  0  0  0  0  0
   -0.0889    3.5508   21.7009 H   0  0  0  0  0  0  0  0  0  0  0  0
    0.4199    2.0882   20.7968 H   0  0  0  0  0  0  0  0  0  0  0  0
    1.1016    2.4201   22.4218 H   0  0  0  0  0  0  0  0  0  0  0  0
    6.3476    0.9480   25.9802 H   0  0  0  0  0  0  0  0  0  0  0  0
    7.7060    1.3621   27.0525 H   0  0  0  0  0  0  0  0  0  0  0  0
    1.9263    5.4874   22.0987 H   0  0  0  0  0  0  0  0  0  0  0  0
  1 24  1  0  0  0  0
  1 28  3  0  0  0  0
  2  4  2  0  0  0  0
  2 10  1  0  0  0  0
  3  5  2  0  0  0  0
  3 12  1  0  0  0  0
  4 15  1  0  0  0  0
  5 16  1  0  0  0  0
  6 11  1  0  0  0  0
  6 15  2  0  0  0  0
  7 13  1  0  0  0  0
  7 16  2  0  0  0  0
  8 11  2  0  0  0  0
  8 29  1  0  0  0  0
  9 14  1  0  0  0  0
  9 29  2  0  0  0  0
 10 11  1  0  0  0  0
 10 14  2  0  0  0  0
 12 13  2  0  0  0  0
 12 17  1  0  0  0  0
 13 25  1  0  0  0  0
 14 31  1  0  0  0  0
 15 38  1  0  0  0  0
 16 40  1  0  0  0  0
 17 32  1  0  0  0  0
 17 33  2  0  0  0  0
 18 25  1  0  0  0  0
 18 31  1  0  0  0  0
 18 34  2  0  0  0  0
 19 20  1  0  0  0  0
 19 24  1  0  0  0  0
 20 24  1  0  0  0  0
 21 22  1  0  0  0  0
 21 25  1  0  0  0  0
 22 31  1  0  0  0  0
 23 25  1  0  0  0  0
 23 32  1  0  0  0  0
 24 27  1  0  0  0  0
 26 38  1  6  0  0  0
 27 39  1  0  0  0  0
 30 38  2  0  0  0  0
 32 39  1  0  0  0  0
 35 38  2  0  0  0  0
 36 39  2  0  0  0  0
 37 39  2  0  0  0  0
  2 41  1  0  0  0  0
  3 42  1  0  0  0  0
  4 43  1  0  0  0  0
  5 44  1  0  0  0  0
  6 45  1  0  0  0  0
  7 46  1  0  0  0  0
  8 47  1  0  0  0  0
  9 48  1  0  0  0  0
 19 49  1  0  0  0  0
 19 50  1  0  0  0  0
 20 51  1  0  0  0  0
 20 52  1  0  0  0  0
 21 53  1  0  0  0  0
 21 54  1  0  0  0  0
 22 55  1  0  0  0  0
 22 56  1  0  0  0  0
 23 57  1  0  0  0  0
 23 58  1  0  0  0  0
 26 59  1  0  0  0  0
 26 60  1  0  0  0  0
 26 61  1  0  0  0  0
 27 62  1  0  0  0  0
 27 63  1  0  0  0  0
 30 64  1  0  0  0  0
M  END
> <scaffold>
tetrahydroisoquinoline-5spiro-isoquinoline

> <compound>
EDJ-MED-7d88f880-3

> <compound_smiles>
CS(=N)(=O)c1ccc2c(c1)cncc2N3CCC4(C3=O)CN(C(=O)c5c4cc(cc5)Cl)S(=O)(=O)CC6(CC6)C#N

> <enantiomer_smiles>
C[S@](=N)(=O)c1ccc2c(c1)cncc2N3CC[C@@]4(C3=O)CN(C(=O)c5c4cc(cc5)Cl)S(=O)(=O)CC6(CC6)C#N

> <clash_score>
1.3032954713138882

> <docking_score>
3.4028234663852886e+38

> <overlap_score>
0.985194206237793

> <MMFF_internal_energy>
97.95529686054546

> <docked_smiles>
C[S@](=N)(=O)c1ccc2c(c1)cncc2N3CC[C@@]4(C3=O)CN(C(=O)c5c4cc(cc5)Cl)S(=O)(=O)CC6(CC6)C#N

$$$$
EDJ-MED-b6c6ee2b-5_1
  -OEChem-01042202313D

 69 73  0     1  0  0  0  0  0999 V2000
    3.7877    2.4205   19.1658 C   0  0  0  0  0  0  0  0  0  0  0  0
   12.0781    0.0316   24.1532 C   0  0  0  0  0  0  0  0  0  0  0  0
    3.3444    2.6278   20.4409 C   0  0  0  0  0  0  0  0  0  0  0  0
   12.9147   -0.6032   23.2559 C   0  0  0  0  0  0  0  0  0  0  0  0
    4.8986    1.0232   21.2985 C   0  0  0  0  0  0  0  0  0  0  0  0
   11.0005   -1.4332   22.0435 C   0  0  0  0  0  0  0  0  0  0  0  0
    5.3288    1.2339   17.6062 C   0  0  0  0  0  0  0  0  0  0  0  0
    6.8449   -0.2893   18.3747 C   0  0  0  0  0  0  0  0  0  0  0  0
    4.8238    1.4906   18.9051 C   0  0  0  0  0  0  0  0  0  0  0  0
    5.3995    0.7732   19.9944 C   0  0  0  0  0  0  0  0  0  0  0  0
   10.7056   -0.0626   23.9890 C   0  0  0  0  0  0  0  0  0  0  0  0
   10.1421   -0.7766   22.9242 C   0  0  0  0  0  0  0  0  0  0  0  0
    6.4452   -0.1472   19.6975 C   0  0  0  0  0  0  0  0  0  0  0  0
    3.8974    1.9290   21.5048 C   0  0  0  0  0  0  0  0  0  0  0  0
   12.3697   -1.3298   22.2224 C   0  0  0  0  0  0  0  0  0  0  0  0
    9.9496    0.5589   24.9527 C   0  0  0  0  0  0  0  0  0  0  0  0
    8.2504    0.0168   21.4265 C   0  0  0  0  0  0  0  0  0  0  0  0
    6.7964    2.0287   25.5065 C   0  0  0  0  0  0  0  0  0  0  0  0
    8.0155   -2.1541   22.4325 C   0  0  0  0  0  0  0  0  0  0  0  0
    6.9880   -1.9367   21.3575 C   0  0  0  0  0  0  0  0  0  0  0  0
    7.8737   -0.1194   23.8825 C   0  0  0  0  0  0  0  0  0  0  0  0
    8.6253   -0.7606   22.6923 C   0  0  3  0  0  0  0  0  0  0  0  0
    5.9239    1.0402   27.6220 C   0  0  0  0  0  0  0  0  0  0  0  0
    3.7136    4.9969   24.6321 C   0  0  0  0  0  0  0  0  0  0  0  0
    2.8377    3.7953   26.6296 C   0  0  0  0  0  0  0  0  0  0  0  0
    8.0937    2.2235   24.7641 C   0  0  0  0  0  0  0  0  0  0  0  0
    1.9764    3.2330   24.3618 C   0  0  0  0  0  0  0  0  0  0  0  0
    2.3771    3.1178   22.9043 C   0  0  0  0  0  0  0  0  0  0  0  0
    6.3072    0.3768   17.3417 N   0  0  0  0  0  0  0  0  0  0  0  0
    7.2305   -0.6898   20.7785 N   0  0  0  0  0  0  0  0  0  0  0  0
    8.6625    1.0133   24.4989 N   0  0  0  0  0  0  0  0  0  0  0  0
    6.9949    1.3594   26.7055 N   0  0  0  0  0  0  0  0  0  0  0  0
    3.1406    3.7026   25.1545 N   0  3  0  0  0  0  0  0  0  0  0  0
   10.3233    0.7301   26.1084 O   0  0  0  0  0  0  0  0  0  0  0  0
    8.8205    1.0412   21.0776 O   0  0  0  0  0  0  0  0  0  0  0  0
    5.7117    2.4230   25.0864 O   0  0  0  0  0  0  0  0  0  0  0  0
    3.4243    2.1582   22.7713 O   0  0  0  0  0  0  0  0  0  0  0  0
   13.4288   -2.1465   21.1124 Cl  0  0  0  0  0  0  0  0  0  0  0  0
    3.3418    2.9747   18.3367 H   0  0  0  0  0  0  0  0  0  0  0  0
   12.5188    0.5961   24.9710 H   0  0  0  0  0  0  0  0  0  0  0  0
    2.5418    3.3504   20.6305 H   0  0  0  0  0  0  0  0  0  0  0  0
   13.9920   -0.5226   23.3817 H   0  0  0  0  0  0  0  0  0  0  0  0
    5.3175    0.4856   22.1531 H   0  0  0  0  0  0  0  0  0  0  0  0
   10.6143   -2.0253   21.2266 H   0  0  0  0  0  0  0  0  0  0  0  0
    4.9141    1.7513   16.7475 H   0  0  0  0  0  0  0  0  0  0  0  0
    7.6459   -0.9759   18.1036 H   0  0  0  0  0  0  0  0  0  0  0  0
    7.5128   -2.5277   23.3386 H   0  0  0  0  0  0  0  0  0  0  0  0
    8.7593   -2.9102   22.1430 H   0  0  0  0  0  0  0  0  0  0  0  0
    7.0602   -2.7255   20.5716 H   0  0  0  0  0  0  0  0  0  0  0  0
    5.9526   -1.9964   21.7706 H   0  0  0  0  0  0  0  0  0  0  0  0
    6.9217    0.3182   23.5732 H   0  0  0  0  0  0  0  0  0  0  0  0
    7.6678   -0.8543   24.6617 H   0  0  0  0  0  0  0  0  0  0  0  0
    5.7945    1.8658   28.3374 H   0  0  0  0  0  0  0  0  0  0  0  0
    4.9907    0.8938   27.0585 H   0  0  0  0  0  0  0  0  0  0  0  0
    6.1713    0.1177   28.1678 H   0  0  0  0  0  0  0  0  0  0  0  0
    2.9412    5.7632   24.7193 H   0  0  0  0  0  0  0  0  0  0  0  0
    4.5847    5.2464   25.2409 H   0  0  0  0  0  0  0  0  0  0  0  0
    3.9953    4.8406   23.5891 H   0  0  0  0  0  0  0  0  0  0  0  0
    2.0454    4.5345   26.7619 H   0  0  0  0  0  0  0  0  0  0  0  0
    2.5145    2.8087   26.9670 H   0  0  0  0  0  0  0  0  0  0  0  0
    3.7520    4.1046   27.1396 H   0  0  0  0  0  0  0  0  0  0  0  0
    7.9052    2.7527   23.8253 H   0  0  0  0  0  0  0  0  0  0  0  0
    8.7872    2.8076   25.3762 H   0  0  0  0  0  0  0  0  0  0  0  0
    1.6834    2.2686   24.7862 H   0  0  0  0  0  0  0  0  0  0  0  0
    1.1814    3.9694   24.5057 H   0  0  0  0  0  0  0  0  0  0  0  0
    1.5250    2.7720   22.3109 H   0  0  0  0  0  0  0  0  0  0  0  0
    2.7198    4.0767   22.5020 H   0  0  0  0  0  0  0  0  0  0  0  0
    7.9400    1.0797   26.9515 H   0  0  0  0  0  0  0  0  0  0  0  0
    3.8915    2.9979   25.0599 H   0  0  0  0  0  0  0  0  0  0  0  0
  1  3  2  0  0  0  0
  1  9  1  0  0  0  0
  2  4  2  0  0  0  0
  2 11  1  0  0  0  0
  3 14  1  0  0  0  0
  4 15  1  0  0  0  0
  5 10  1  0  0  0  0
  5 14  2  0  0  0  0
  6 12  1  0  0  0  0
  6 15  2  0  0  0  0
  7  9  2  0  0  0  0
  7 29  1  0  0  0  0
  8 13  1  0  0  0  0
  8 29  2  0  0  0  0
  9 10  1  0  0  0  0
 10 13  2  0  0  0  0
 11 12  2  0  0  0  0
 11 16  1  0  0  0  0
 12 22  1  0  0  0  0
 13 30  1  0  0  0  0
 14 37  1  0  0  0  0
 15 38  1  0  0  0  0
 16 31  1  0  0  0  0
 16 34  2  0  0  0  0
 17 22  1  0  0  0  0
 17 30  1  0  0  0  0
 17 35  2  0  0  0  0
 18 26  1  0  0  0  0
 18 32  1  0  0  0  0
 18 36  2  0  0  0  0
 19 20  1  0  0  0  0
 19 22  1  0  0  0  0
 20 30  1  0  0  0  0
 21 22  1  0  0  0  0
 21 31  1  0  0  0  0
 23 32  1  0  0  0  0
 24 33  1  0  0  0  0
 25 33  1  0  0  0  0
 26 31  1  0  0  0  0
 27 28  1  0  0  0  0
 27 33  1  0  0  0  0
 28 37  1  0  0  0  0
  1 39  1  0  0  0  0
  2 40  1  0  0  0  0
  3 41  1  0  0  0  0
  4 42  1  0  0  0  0
  5 43  1  0  0  0  0
  6 44  1  0  0  0  0
  7 45  1  0  0  0  0
  8 46  1  0  0  0  0
 19 47  1  0  0  0  0
 19 48  1  0  0  0  0
 20 49  1  0  0  0  0
 20 50  1  0  0  0  0
 21 51  1  0  0  0  0
 21 52  1  0  0  0  0
 23 53  1  0  0  0  0
 23 54  1  0  0  0  0
 23 55  1  0  0  0  0
 24 56  1  0  0  0  0
 24 57  1  0  0  0  0
 24 58  1  0  0  0  0
 25 59  1  0  0  0  0
 25 60  1  0  0  0  0
 25 61  1  0  0  0  0
 26 62  1  0  0  0  0
 26 63  1  0  0  0  0
 27 64  1  0  0  0  0
 27 65  1  0  0  0  0
 28 66  1  0  0  0  0
 28 67  1  0  0  0  0
 32 68  1  0  0  0  0
 33 69  1  0  0  0  0
M  CHG  1  33   1
M  END
> <scaffold>
tetrahydroisoquinoline-5spiro-isoquinoline

> <compound>
EDJ-MED-b6c6ee2b-5

> <compound_smiles>
CNC(=O)CN1CC2(CCN(C2=O)c3cncc4c3cc(cc4)OCCN(C)C)c5cc(ccc5C1=O)Cl

> <enantiomer_smiles>
CNC(=O)CN1C[C@]2(CCN(C2=O)c3cncc4c3cc(cc4)OCCN(C)C)c5cc(ccc5C1=O)Cl

> <clash_score>
0

> <docking_score>
3.4028234663852886e+38

> <overlap_score>
1.0

> <MMFF_internal_energy>
174.05504004593394

> <docked_smiles>
CNC(=O)CN1C[C@]2(CCN(C2=O)c3cncc4c3cc(cc4)OCC[NH+](C)C)c5cc(ccc5C1=O)Cl

$$$$
EDJ-MED-9f4ac58c-7_1
  -OEChem-01042202313D

 68 73  0     1  0  0  0  0  0999 V2000
    4.8986    1.0232   21.2985 C   0  0  0  0  0  0  0  0  0  0  0  0
   12.0781    0.0316   24.1532 C   0  0  0  0  0  0  0  0  0  0  0  0
    3.8974    1.9290   21.5048 C   0  0  0  0  0  0  0  0  0  0  0  0
   12.9147   -0.6032   23.2559 C   0  0  0  0  0  0  0  0  0  0  0  0
    3.7877    2.4205   19.1658 C   0  0  0  0  0  0  0  0  0  0  0  0
   11.0005   -1.4332   22.0435 C   0  0  0  0  0  0  0  0  0  0  0  0
    5.3288    1.2339   17.6062 C   0  0  0  0  0  0  0  0  0  0  0  0
    6.8449   -0.2893   18.3747 C   0  0  0  0  0  0  0  0  0  0  0  0
    5.3995    0.7732   19.9944 C   0  0  0  0  0  0  0  0  0  0  0  0
    4.8238    1.4906   18.9051 C   0  0  0  0  0  0  0  0  0  0  0  0
   10.7056   -0.0626   23.9890 C   0  0  0  0  0  0  0  0  0  0  0  0
   10.1421   -0.7766   22.9242 C   0  0  0  0  0  0  0  0  0  0  0  0
    6.4452   -0.1472   19.6975 C   0  0  0  0  0  0  0  0  0  0  0  0
    3.3444    2.6278   20.4409 C   0  0  0  0  0  0  0  0  0  0  0  0
   12.3697   -1.3298   22.2224 C   0  0  0  0  0  0  0  0  0  0  0  0
    9.9496    0.5589   24.9527 C   0  0  0  0  0  0  0  0  0  0  0  0
    8.2504    0.0168   21.4265 C   0  0  0  0  0  0  0  0  0  0  0  0
    5.6592    2.5893   28.4120 C   0  0  0  0  0  0  0  0  0  0  0  0
    6.7130    3.6210   28.1192 C   0  0  0  0  0  0  0  0  0  0  0  0
    8.0155   -2.1541   22.4325 C   0  0  0  0  0  0  0  0  0  0  0  0
    6.9880   -1.9367   21.3575 C   0  0  0  0  0  0  0  0  0  0  0  0
    7.8737   -0.1194   23.8825 C   0  0  0  0  0  0  0  0  0  0  0  0
    8.6253   -0.7606   22.6923 C   0  0  3  0  0  0  0  0  0  0  0  0
    6.1458    2.7877   27.0020 C   0  0  0  0  0  0  0  0  0  0  0  0
    4.0261    2.7322   25.9888 C   0  0  0  0  0  0  0  0  0  0  0  0
    0.1993    2.0876   21.4733 C   0  0  0  0  0  0  0  0  0  0  0  0
    6.9941    1.7268   26.3371 C   0  0  0  0  0  0  0  0  0  0  0  0
    6.3072    0.3768   17.3417 N   0  0  0  0  0  0  0  0  0  0  0  0
    7.2305   -0.6898   20.7785 N   0  0  0  0  0  0  0  0  0  0  0  0
    8.6625    1.0133   24.4989 N   0  0  0  0  0  0  0  0  0  0  0  0
    2.2947    3.5766   20.6954 N   0  0  0  0  0  0  0  0  0  0  0  0
   10.3166    0.7434   26.1217 O   0  0  0  0  0  0  0  0  0  0  0  0
    8.8196    1.0408   21.0766 O   0  0  0  0  0  0  0  0  0  0  0  0
   -0.1216    4.3790   20.2842 O   0  0  0  0  0  0  0  0  0  0  0  0
    0.7328    2.4312   18.9346 O   0  0  0  0  0  0  0  0  0  0  0  0
    6.9311    2.7494   23.9334 O   0  0  0  0  0  0  0  0  0  0  0  0
    8.8702    3.3156   25.4517 O   0  0  0  0  0  0  0  0  0  0  0  0
    5.2370    3.4549   26.1106 O   0  0  0  0  0  0  0  0  0  0  0  0
    0.7011    3.1891   20.1697 S   0  0  0  0  0  0  0  0  0  0  0  0
    7.8873    2.3819   24.9522 S   0  0  0  0  0  0  0  0  0  0  0  0
   13.4293   -2.1466   21.1128 Cl  0  0  0  0  0  0  0  0  0  0  0  0
    5.3129    0.4891   22.1565 H   0  0  0  0  0  0  0  0  0  0  0  0
   12.5191    0.5957   24.9706 H   0  0  0  0  0  0  0  0  0  0  0  0
    3.5264    2.1066   22.5215 H   0  0  0  0  0  0  0  0  0  0  0  0
   13.9921   -0.5215   23.3809 H   0  0  0  0  0  0  0  0  0  0  0  0
    3.3490    2.9700   18.3283 H   0  0  0  0  0  0  0  0  0  0  0  0
   10.6170   -2.0260   21.2272 H   0  0  0  0  0  0  0  0  0  0  0  0
    4.9144    1.7516   16.7476 H   0  0  0  0  0  0  0  0  0  0  0  0
    7.6459   -0.9758   18.1038 H   0  0  0  0  0  0  0  0  0  0  0  0
    5.9648    1.6969   28.9448 H   0  0  0  0  0  0  0  0  0  0  0  0
    4.6668    2.9418   28.6662 H   0  0  0  0  0  0  0  0  0  0  0  0
    6.4263    4.6642   28.1777 H   0  0  0  0  0  0  0  0  0  0  0  0
    7.7223    3.4172   28.4560 H   0  0  0  0  0  0  0  0  0  0  0  0
    7.5124   -2.5282   23.3379 H   0  0  0  0  0  0  0  0  0  0  0  0
    8.7585   -2.9105   22.1421 H   0  0  0  0  0  0  0  0  0  0  0  0
    7.0610   -2.7257   20.5719 H   0  0  0  0  0  0  0  0  0  0  0  0
    5.9524   -1.9968   21.7699 H   0  0  0  0  0  0  0  0  0  0  0  0
    6.8990    0.2933   23.5632 H   0  0  0  0  0  0  0  0  0  0  0  0
    7.6456   -0.8834   24.6465 H   0  0  0  0  0  0  0  0  0  0  0  0
    3.3536    3.2589   25.3074 H   0  0  0  0  0  0  0  0  0  0  0  0
    3.5602    2.6318   26.9723 H   0  0  0  0  0  0  0  0  0  0  0  0
    4.2434    1.7395   25.5877 H   0  0  0  0  0  0  0  0  0  0  0  0
   -0.8187    1.7527   21.2684 H   0  0  0  0  0  0  0  0  0  0  0  0
    0.8849    1.2390   21.4900 H   0  0  0  0  0  0  0  0  0  0  0  0
    0.2402    2.6313   22.4183 H   0  0  0  0  0  0  0  0  0  0  0  0
    6.3739    0.9078   25.9624 H   0  0  0  0  0  0  0  0  0  0  0  0
    7.7323    1.3219   27.0346 H   0  0  0  0  0  0  0  0  0  0  0  0
    2.3431    4.0286   21.6236 H   0  0  0  0  0  0  0  0  0  0  0  0
  1  3  2  0  0  0  0
  1  9  1  0  0  0  0
  2  4  2  0  0  0  0
  2 11  1  0  0  0  0
  3 14  1  0  0  0  0
  4 15  1  0  0  0  0
  5 10  1  0  0  0  0
  5 14  2  0  0  0  0
  6 12  1  0  0  0  0
  6 15  2  0  0  0  0
  7 10  2  0  0  0  0
  7 28  1  0  0  0  0
  8 13  1  0  0  0  0
  8 28  2  0  0  0  0
  9 10  1  0  0  0  0
  9 13  2  0  0  0  0
 11 12  2  0  0  0  0
 11 16  1  0  0  0  0
 12 23  1  0  0  0  0
 13 29  1  0  0  0  0
 14 31  1  0  0  0  0
 15 41  1  0  0  0  0
 16 30  1  0  0  0  0
 16 32  2  0  0  0  0
 17 23  1  0  0  0  0
 17 29  1  0  0  0  0
 17 33  2  0  0  0  0
 18 19  1  0  0  0  0
 18 24  1  0  0  0  0
 19 24  1  0  0  0  0
 20 21  1  0  0  0  0
 20 23  1  0  0  0  0
 21 29  1  0  0  0  0
 22 23  1  0  0  0  0
 22 30  1  0  0  0  0
 24 27  1  0  0  0  0
 24 38  1  0  0  0  0
 25 38  1  0  0  0  0
 26 39  1  0  0  0  0
 27 40  1  0  0  0  0
 30 40  1  0  0  0  0
 31 39  1  0  0  0  0
 34 39  2  0  0  0  0
 35 39  2  0  0  0  0
 36 40  2  0  0  0  0
 37 40  2  0  0  0  0
  1 42  1  0  0  0  0
  2 43  1  0  0  0  0
  3 44  1  0  0  0  0
  4 45  1  0  0  0  0
  5 46  1  0  0  0  0
  6 47  1  0  0  0  0
  7 48  1  0  0  0  0
  8 49  1  0  0  0  0
 18 50  1  0  0  0  0
 18 51  1  0  0  0  0
 19 52  1  0  0  0  0
 19 53  1  0  0  0  0
 20 54  1  0  0  0  0
 20 55  1  0  0  0  0
 21 56  1  0  0  0  0
 21 57  1  0  0  0  0
 22 58  1  0  0  0  0
 22 59  1  0  0  0  0
 25 60  1  0  0  0  0
 25 61  1  0  0  0  0
 25 62  1  0  0  0  0
 26 63  1  0  0  0  0
 26 64  1  0  0  0  0
 26 65  1  0  0  0  0
 27 66  1  0  0  0  0
 27 67  1  0  0  0  0
 31 68  1  0  0  0  0
M  END
> <scaffold>
tetrahydroisoquinoline-5spiro-isoquinoline

> <compound>
EDJ-MED-9f4ac58c-7

> <compound_smiles>
COC1(CC1)CS(=O)(=O)N2CC3(CCN(C3=O)c4cncc5c4ccc(c5)NS(=O)(=O)C)c6cc(ccc6C2=O)Cl

> <enantiomer_smiles>
COC1(CC1)CS(=O)(=O)N2C[C@]3(CCN(C3=O)c4cncc5c4ccc(c5)NS(=O)(=O)C)c6cc(ccc6C2=O)Cl

> <clash_score>
1.6423096311569227

> <docking_score>
3.4028234663852886e+38

> <overlap_score>
0.9854404926300049

> <MMFF_internal_energy>
53.35651683557343

> <docked_smiles>
COC1(CC1)CS(=O)(=O)N2C[C@]3(CCN(C3=O)c4cncc5c4ccc(c5)NS(=O)(=O)C)c6cc(ccc6C2=O)Cl

$$$$
MAT-POS-853c0ffa-9_1
  -OEChem-01042202313D

 74 79  0     1  0  0  0  0  0999 V2000
    6.5923    2.6670   28.4298 C   0  0  0  0  0  0  0  0  0  0  0  0
    3.7877    2.4205   19.1658 C   0  0  0  0  0  0  0  0  0  0  0  0
   12.0781    0.0316   24.1532 C   0  0  0  0  0  0  0  0  0  0  0  0
    3.3444    2.6278   20.4409 C   0  0  0  0  0  0  0  0  0  0  0  0
   12.9147   -0.6032   23.2559 C   0  0  0  0  0  0  0  0  0  0  0  0
    4.8986    1.0232   21.2985 C   0  0  0  0  0  0  0  0  0  0  0  0
   11.0005   -1.4332   22.0435 C   0  0  0  0  0  0  0  0  0  0  0  0
    5.3288    1.2339   17.6062 C   0  0  0  0  0  0  0  0  0  0  0  0
    6.8449   -0.2893   18.3747 C   0  0  0  0  0  0  0  0  0  0  0  0
    4.8238    1.4906   18.9051 C   0  0  0  0  0  0  0  0  0  0  0  0
    5.3995    0.7732   19.9944 C   0  0  0  0  0  0  0  0  0  0  0  0
   10.7056   -0.0626   23.9890 C   0  0  0  0  0  0  0  0  0  0  0  0
   10.1421   -0.7766   22.9242 C   0  0  0  0  0  0  0  0  0  0  0  0
    6.4452   -0.1472   19.6975 C   0  0  0  0  0  0  0  0  0  0  0  0
    3.8974    1.9290   21.5048 C   0  0  0  0  0  0  0  0  0  0  0  0
   12.3697   -1.3298   22.2224 C   0  0  0  0  0  0  0  0  0  0  0  0
    8.2504    0.0168   21.4265 C   0  0  0  0  0  0  0  0  0  0  0  0
    9.9496    0.5589   24.9527 C   0  0  0  0  0  0  0  0  0  0  0  0
    5.7974    0.2895   28.6968 C   0  0  0  0  0  0  0  0  0  0  0  0
    5.0772    0.8711   27.5163 C   0  0  0  0  0  0  0  0  0  0  0  0
    8.0155   -2.1541   22.4325 C   0  0  0  0  0  0  0  0  0  0  0  0
    6.9880   -1.9367   21.3575 C   0  0  0  0  0  0  0  0  0  0  0  0
    7.8737   -0.1194   23.8825 C   0  0  0  0  0  0  0  0  0  0  0  0
    6.4702    1.3516   27.8565 C   0  0  0  0  0  0  0  0  0  0  0  0
    8.6253   -0.7606   22.6923 C   0  0  3  0  0  0  0  0  0  0  0  0
    3.7143    4.9960   24.6333 C   0  0  0  0  0  0  0  0  0  0  0  0
    2.8395    3.7935   26.6306 C   0  0  0  0  0  0  0  0  0  0  0  0
    7.6088    0.9304   26.9546 C   0  0  0  0  0  0  0  0  0  0  0  0
    1.9771    3.2322   24.3631 C   0  0  0  0  0  0  0  0  0  0  0  0
    2.3771    3.1176   22.9053 C   0  0  0  0  0  0  0  0  0  0  0  0
    6.6907    3.7268   28.8917 N   0  0  0  0  0  0  0  0  0  0  0  0
    6.3072    0.3768   17.3417 N   0  0  0  0  0  0  0  0  0  0  0  0
    7.2305   -0.6898   20.7785 N   0  0  0  0  0  0  0  0  0  0  0  0
    8.6625    1.0133   24.4989 N   0  0  3  0  0  0  0  0  0  0  0  0
    3.1417    3.7015   25.1554 N   0  3  0  0  0  0  0  0  0  0  0  0
    8.8314    1.0394   21.0790 O   0  0  0  0  0  0  0  0  0  0  0  0
    6.4559    2.2241   24.9990 O   0  0  0  0  0  0  0  0  0  0  0  0
    8.6119    3.1278   25.9583 O   0  0  0  0  0  0  0  0  0  0  0  0
    3.4243    2.1582   22.7713 O   0  0  0  0  0  0  0  0  0  0  0  0
    7.7725    2.0180   25.5623 S   0  0  0  0  0  0  0  0  0  0  0  0
   13.4285   -2.1410   21.1076 Cl  0  0  0  0  0  0  0  0  0  0  0  0
    3.3418    2.9747   18.3367 H   0  0  0  0  0  0  0  0  0  0  0  0
   12.5038    0.5986   24.9731 H   0  0  0  0  0  0  0  0  0  0  0  0
    2.5418    3.3504   20.6305 H   0  0  0  0  0  0  0  0  0  0  0  0
   13.9925   -0.5165   23.3773 H   0  0  0  0  0  0  0  0  0  0  0  0
    5.3175    0.4856   22.1531 H   0  0  0  0  0  0  0  0  0  0  0  0
   10.6052   -2.0169   21.2237 H   0  0  0  0  0  0  0  0  0  0  0  0
    4.9141    1.7513   16.7476 H   0  0  0  0  0  0  0  0  0  0  0  0
    7.6459   -0.9759   18.1036 H   0  0  0  0  0  0  0  0  0  0  0  0
    9.7866   -0.1187   25.8304 H   0  0  0  0  0  0  0  0  0  0  0  0
   10.4816    1.4567   25.3600 H   0  0  0  0  0  0  0  0  0  0  0  0
    5.4358    0.5518   29.6847 H   0  0  0  0  0  0  0  0  0  0  0  0
    6.1481   -0.7331   28.6181 H   0  0  0  0  0  0  0  0  0  0  0  0
    4.9448    0.2375   26.6469 H   0  0  0  0  0  0  0  0  0  0  0  0
    4.2331    1.5218   27.7145 H   0  0  0  0  0  0  0  0  0  0  0  0
    7.5167   -2.5459   23.3332 H   0  0  0  0  0  0  0  0  0  0  0  0
    8.7666   -2.9029   22.1426 H   0  0  0  0  0  0  0  0  0  0  0  0
    7.0601   -2.7250   20.5715 H   0  0  0  0  0  0  0  0  0  0  0  0
    5.9530   -1.9963   21.7709 H   0  0  0  0  0  0  0  0  0  0  0  0
    6.8882    0.2643   23.5640 H   0  0  0  0  0  0  0  0  0  0  0  0
    7.6667   -0.8657   24.6729 H   0  0  0  0  0  0  0  0  0  0  0  0
    2.9418    5.7622   24.7212 H   0  0  0  0  0  0  0  0  0  0  0  0
    4.5857    5.2454   25.2417 H   0  0  0  0  0  0  0  0  0  0  0  0
    3.9955    4.8403   23.5901 H   0  0  0  0  0  0  0  0  0  0  0  0
    2.0473    4.5325   26.7637 H   0  0  0  0  0  0  0  0  0  0  0  0
    2.5166    2.8066   26.9677 H   0  0  0  0  0  0  0  0  0  0  0  0
    3.7540    4.1025   27.1404 H   0  0  0  0  0  0  0  0  0  0  0  0
    7.4436   -0.0759   26.5599 H   0  0  0  0  0  0  0  0  0  0  0  0
    8.5609    0.9485   27.4918 H   0  0  0  0  0  0  0  0  0  0  0  0
    1.6844    2.2675   24.7871 H   0  0  0  0  0  0  0  0  0  0  0  0
    1.1821    3.9684   24.5077 H   0  0  0  0  0  0  0  0  0  0  0  0
    1.5247    2.7720   22.3121 H   0  0  0  0  0  0  0  0  0  0  0  0
    2.7195    4.0767   22.5033 H   0  0  0  0  0  0  0  0  0  0  0  0
    3.8926    2.9969   25.0600 H   0  0  0  0  0  0  0  0  0  0  0  0
  1 24  1  0  0  0  0
  1 31  3  0  0  0  0
  2  4  2  0  0  0  0
  2 10  1  0  0  0  0
  3  5  2  0  0  0  0
  3 12  1  0  0  0  0
  4 15  1  0  0  0  0
  5 16  1  0  0  0  0
  6 11  1  0  0  0  0
  6 15  2  0  0  0  0
  7 13  1  0  0  0  0
  7 16  2  0  0  0  0
  8 10  2  0  0  0  0
  8 32  1  0  0  0  0
  9 14  1  0  0  0  0
  9 32  2  0  0  0  0
 10 11  1  0  0  0  0
 11 14  2  0  0  0  0
 12 13  2  0  0  0  0
 12 18  1  0  0  0  0
 13 25  1  0  0  0  0
 14 33  1  0  0  0  0
 15 39  1  0  0  0  0
 16 41  1  0  0  0  0
 17 25  1  0  0  0  0
 17 33  1  0  0  0  0
 17 36  2  0  0  0  0
 18 34  1  0  0  0  0
 19 20  1  0  0  0  0
 19 24  1  0  0  0  0
 20 24  1  0  0  0  0
 21 22  1  0  0  0  0
 21 25  1  0  0  0  0
 22 33  1  0  0  0  0
 23 25  1  0  0  0  0
 23 34  1  0  0  0  0
 24 28  1  0  0  0  0
 26 35  1  0  0  0  0
 27 35  1  0  0  0  0
 28 40  1  0  0  0  0
 29 30  1  0  0  0  0
 29 35  1  0  0  0  0
 30 39  1  0  0  0  0
 34 40  1  0  0  0  0
 37 40  2  0  0  0  0
 38 40  2  0  0  0  0
  2 42  1  0  0  0  0
  3 43  1  0  0  0  0
  4 44  1  0  0  0  0
  5 45  1  0  0  0  0
  6 46  1  0  0  0  0
  7 47  1  0  0  0  0
  8 48  1  0  0  0  0
  9 49  1  0  0  0  0
 18 50  1  0  0  0  0
 18 51  1  0  0  0  0
 19 52  1  0  0  0  0
 19 53  1  0  0  0  0
 20 54  1  0  0  0  0
 20 55  1  0  0  0  0
 21 56  1  0  0  0  0
 21 57  1  0  0  0  0
 22 58  1  0  0  0  0
 22 59  1  0  0  0  0
 23 60  1  0  0  0  0
 23 61  1  0  0  0  0
 26 62  1  0  0  0  0
 26 63  1  0  0  0  0
 26 64  1  0  0  0  0
 27 65  1  0  0  0  0
 27 66  1  0  0  0  0
 27 67  1  0  0  0  0
 28 68  1  0  0  0  0
 28 69  1  0  0  0  0
 29 70  1  0  0  0  0
 29 71  1  0  0  0  0
 30 72  1  0  0  0  0
 30 73  1  0  0  0  0
 35 74  1  0  0  0  0
M  CHG  1  35   1
M  END
> <scaffold>
tetrahydroisoquinoline-5spiro-isoquinoline

> <compound>
MAT-POS-853c0ffa-9

> <compound_smiles>
CN(C)CCOc1ccc2cncc(c2c1)N3CCC4(C3=O)CN(Cc5c4cc(cc5)Cl)S(=O)(=O)CC6(CC6)C#N

> <enantiomer_smiles>
CN(C)CCOc1ccc2cncc(c2c1)N3CC[C@]4(C3=O)C[N@@](Cc5c4cc(cc5)Cl)S(=O)(=O)CC6(CC6)C#N

> <clash_score>
0

> <docking_score>
3.4028234663852886e+38

> <overlap_score>
0.9734969139099121

> <MMFF_internal_energy>
138.41401042477685

> <docked_smiles>
C[NH+](C)CCOc1ccc2cncc(c2c1)N3CC[C@]4(C3=O)C[N@](Cc5c4cc(cc5)Cl)S(=O)(=O)CC6(CC6)C#N

$$$$
MAT-POS-853c0ffa-19_1
  -OEChem-01042202313D

 76 81  0     1  0  0  0  0  0999 V2000
    3.7877    2.4205   19.1658 C   0  0  0  0  0  0  0  0  0  0  0  0
   12.0781    0.0316   24.1532 C   0  0  0  0  0  0  0  0  0  0  0  0
    3.3444    2.6278   20.4409 C   0  0  0  0  0  0  0  0  0  0  0  0
   12.9147   -0.6032   23.2559 C   0  0  0  0  0  0  0  0  0  0  0  0
    4.8986    1.0232   21.2985 C   0  0  0  0  0  0  0  0  0  0  0  0
   11.0005   -1.4332   22.0435 C   0  0  0  0  0  0  0  0  0  0  0  0
    5.3288    1.2339   17.6062 C   0  0  0  0  0  0  0  0  0  0  0  0
    6.8449   -0.2893   18.3747 C   0  0  0  0  0  0  0  0  0  0  0  0
    4.8238    1.4906   18.9051 C   0  0  0  0  0  0  0  0  0  0  0  0
    5.3995    0.7732   19.9944 C   0  0  0  0  0  0  0  0  0  0  0  0
   10.7056   -0.0626   23.9890 C   0  0  0  0  0  0  0  0  0  0  0  0
   10.1421   -0.7766   22.9242 C   0  0  0  0  0  0  0  0  0  0  0  0
    6.4452   -0.1472   19.6975 C   0  0  0  0  0  0  0  0  0  0  0  0
    3.8974    1.9290   21.5048 C   0  0  0  0  0  0  0  0  0  0  0  0
   12.3697   -1.3298   22.2224 C   0  0  0  0  0  0  0  0  0  0  0  0
    8.2504    0.0168   21.4265 C   0  0  0  0  0  0  0  0  0  0  0  0
    9.9496    0.5589   24.9527 C   0  0  0  0  0  0  0  0  0  0  0  0
    7.5795    2.5373   28.9869 C   0  0  0  0  0  0  0  0  0  0  0  0
    7.1785    1.1826   29.4969 C   0  0  0  0  0  0  0  0  0  0  0  0
    8.0155   -2.1541   22.4325 C   0  0  0  0  0  0  0  0  0  0  0  0
    6.9880   -1.9367   21.3575 C   0  0  0  0  0  0  0  0  0  0  0  0
    7.8737   -0.1194   23.8825 C   0  0  0  0  0  0  0  0  0  0  0  0
    8.6253   -0.7606   22.6923 C   0  0  3  0  0  0  0  0  0  0  0  0
    6.8379    1.5828   28.0804 C   0  0  0  0  0  0  0  0  0  0  0  0
    5.4005    1.8877   27.7599 C   0  0  0  0  0  0  0  0  0  0  0  0
    2.2566    4.1789   25.2527 C   0  0  0  0  0  0  0  0  0  0  0  0
    1.7980    2.1895   26.6783 C   0  0  0  0  0  0  0  0  0  0  0  0
    7.6088    0.9304   26.9546 C   0  0  0  0  0  0  0  0  0  0  0  0
    1.5010    2.0473   24.2101 C   0  0  0  0  0  0  0  0  0  0  0  0
    2.0557    2.5431   22.8892 C   0  0  0  0  0  0  0  0  0  0  0  0
    6.3072    0.3768   17.3417 N   0  0  0  0  0  0  0  0  0  0  0  0
    7.2305   -0.6898   20.7785 N   0  0  0  0  0  0  0  0  0  0  0  0
    8.6625    1.0133   24.4989 N   0  0  3  0  0  0  0  0  0  0  0  0
    2.2573    2.6720   25.3246 N   0  3  0  0  0  0  0  0  0  0  0  0
    8.8314    1.0394   21.0790 O   0  0  0  0  0  0  0  0  0  0  0  0
    6.4559    2.2241   24.9990 O   0  0  0  0  0  0  0  0  0  0  0  0
    8.6119    3.1278   25.9583 O   0  0  0  0  0  0  0  0  0  0  0  0
    3.4243    2.1582   22.7713 O   0  0  0  0  0  0  0  0  0  0  0  0
    7.7725    2.0180   25.5623 S   0  0  0  0  0  0  0  0  0  0  0  0
   13.4285   -2.1410   21.1076 Cl  0  0  0  0  0  0  0  0  0  0  0  0
    3.3418    2.9747   18.3367 H   0  0  0  0  0  0  0  0  0  0  0  0
   12.5038    0.5986   24.9731 H   0  0  0  0  0  0  0  0  0  0  0  0
    2.5418    3.3504   20.6305 H   0  0  0  0  0  0  0  0  0  0  0  0
   13.9925   -0.5165   23.3773 H   0  0  0  0  0  0  0  0  0  0  0  0
    5.3175    0.4856   22.1531 H   0  0  0  0  0  0  0  0  0  0  0  0
   10.6052   -2.0169   21.2237 H   0  0  0  0  0  0  0  0  0  0  0  0
    4.9141    1.7513   16.7476 H   0  0  0  0  0  0  0  0  0  0  0  0
    7.6459   -0.9759   18.1036 H   0  0  0  0  0  0  0  0  0  0  0  0
    9.7866   -0.1187   25.8304 H   0  0  0  0  0  0  0  0  0  0  0  0
   10.4816    1.4567   25.3600 H   0  0  0  0  0  0  0  0  0  0  0  0
    7.0508    3.3986   29.3777 H   0  0  0  0  0  0  0  0  0  0  0  0
    8.6328    2.7143   28.8042 H   0  0  0  0  0  0  0  0  0  0  0  0
    7.9633    0.4526   29.6559 H   0  0  0  0  0  0  0  0  0  0  0  0
    6.3812    1.1368   30.2294 H   0  0  0  0  0  0  0  0  0  0  0  0
    7.5167   -2.5459   23.3332 H   0  0  0  0  0  0  0  0  0  0  0  0
    8.7666   -2.9029   22.1426 H   0  0  0  0  0  0  0  0  0  0  0  0
    7.0601   -2.7250   20.5715 H   0  0  0  0  0  0  0  0  0  0  0  0
    5.9530   -1.9963   21.7709 H   0  0  0  0  0  0  0  0  0  0  0  0
    6.8882    0.2643   23.5640 H   0  0  0  0  0  0  0  0  0  0  0  0
    7.6667   -0.8657   24.6729 H   0  0  0  0  0  0  0  0  0  0  0  0
    4.9759    1.1244   27.0964 H   0  0  0  0  0  0  0  0  0  0  0  0
    5.3077    2.8595   27.2598 H   0  0  0  0  0  0  0  0  0  0  0  0
    4.7928    1.9179   28.6726 H   0  0  0  0  0  0  0  0  0  0  0  0
    1.2226    4.5170   25.3428 H   0  0  0  0  0  0  0  0  0  0  0  0
    2.8653    4.5531   26.0780 H   0  0  0  0  0  0  0  0  0  0  0  0
    2.6812    4.4676   24.2893 H   0  0  0  0  0  0  0  0  0  0  0  0
    0.7537    2.4825   26.8007 H   0  0  0  0  0  0  0  0  0  0  0  0
    1.9062    1.1034   26.7003 H   0  0  0  0  0  0  0  0  0  0  0  0
    2.4292    2.6622   27.4333 H   0  0  0  0  0  0  0  0  0  0  0  0
    7.0989    0.0296   26.6018 H   0  0  0  0  0  0  0  0  0  0  0  0
    8.6192    0.6630   27.2756 H   0  0  0  0  0  0  0  0  0  0  0  0
    1.6178    0.9661   24.3263 H   0  0  0  0  0  0  0  0  0  0  0  0
    0.4542    2.3334   24.3421 H   0  0  0  0  0  0  0  0  0  0  0  0
    1.5044    2.0880   22.0604 H   0  0  0  0  0  0  0  0  0  0  0  0
    1.9836    3.6322   22.8036 H   0  0  0  0  0  0  0  0  0  0  0  0
    3.2458    2.3813   25.2369 H   0  0  0  0  0  0  0  0  0  0  0  0
  1  3  2  0  0  0  0
  1  9  1  0  0  0  0
  2  4  2  0  0  0  0
  2 11  1  0  0  0  0
  3 14  1  0  0  0  0
  4 15  1  0  0  0  0
  5 10  1  0  0  0  0
  5 14  2  0  0  0  0
  6 12  1  0  0  0  0
  6 15  2  0  0  0  0
  7  9  2  0  0  0  0
  7 31  1  0  0  0  0
  8 13  1  0  0  0  0
  8 31  2  0  0  0  0
  9 10  1  0  0  0  0
 10 13  2  0  0  0  0
 11 12  2  0  0  0  0
 11 17  1  0  0  0  0
 12 23  1  0  0  0  0
 13 32  1  0  0  0  0
 14 38  1  0  0  0  0
 15 40  1  0  0  0  0
 16 23  1  0  0  0  0
 16 32  1  0  0  0  0
 16 35  2  0  0  0  0
 17 33  1  0  0  0  0
 18 19  1  0  0  0  0
 18 24  1  0  0  0  0
 19 24  1  0  0  0  0
 20 21  1  0  0  0  0
 20 23  1  0  0  0  0
 21 32  1  0  0  0  0
 22 23  1  0  0  0  0
 22 33  1  0  0  0  0
 24 25  1  0  0  0  0
 24 28  1  0  0  0  0
 26 34  1  0  0  0  0
 27 34  1  0  0  0  0
 28 39  1  0  0  0  0
 29 30  1  0  0  0  0
 29 34  1  0  0  0  0
 30 38  1  0  0  0  0
 33 39  1  0  0  0  0
 36 39  2  0  0  0  0
 37 39  2  0  0  0  0
  1 41  1  0  0  0  0
  2 42  1  0  0  0  0
  3 43  1  0  0  0  0
  4 44  1  0  0  0  0
  5 45  1  0  0  0  0
  6 46  1  0  0  0  0
  7 47  1  0  0  0  0
  8 48  1  0  0  0  0
 17 49  1  0  0  0  0
 17 50  1  0  0  0  0
 18 51  1  0  0  0  0
 18 52  1  0  0  0  0
 19 53  1  0  0  0  0
 19 54  1  0  0  0  0
 20 55  1  0  0  0  0
 20 56  1  0  0  0  0
 21 57  1  0  0  0  0
 21 58  1  0  0  0  0
 22 59  1  0  0  0  0
 22 60  1  0  0  0  0
 25 61  1  0  0  0  0
 25 62  1  0  0  0  0
 25 63  1  0  0  0  0
 26 64  1  0  0  0  0
 26 65  1  0  0  0  0
 26 66  1  0  0  0  0
 27 67  1  0  0  0  0
 27 68  1  0  0  0  0
 27 69  1  0  0  0  0
 28 70  1  0  0  0  0
 28 71  1  0  0  0  0
 29 72  1  0  0  0  0
 29 73  1  0  0  0  0
 30 74  1  0  0  0  0
 30 75  1  0  0  0  0
 34 76  1  0  0  0  0
M  CHG  1  34   1
M  END
> <scaffold>
tetrahydroisoquinoline-5spiro-isoquinoline

> <compound>
MAT-POS-853c0ffa-19

> <compound_smiles>
CC1(CC1)CS(=O)(=O)N2Cc3ccc(cc3C4(C2)CCN(C4=O)c5cncc6c5cc(cc6)OCCN(C)C)Cl

> <enantiomer_smiles>
CC1(CC1)CS(=O)(=O)[N@@]2Cc3ccc(cc3[C@@]4(C2)CCN(C4=O)c5cncc6c5cc(cc6)OCCN(C)C)Cl

> <clash_score>
0

> <docking_score>
3.4028234663852886e+38

> <overlap_score>
0.9752084016799927

> <MMFF_internal_energy>
171.06968388875222

> <docked_smiles>
CC1(CC1)CS(=O)(=O)[N@]2Cc3ccc(cc3[C@@]4(C2)CCN(C4=O)c5cncc6c5cc(cc6)OCC[NH+](C)C)Cl

$$$$
EDJ-MED-dfa1d800-1_1
  -OEChem-01042202313D

 77 83  0     1  0  0  0  0  0999 V2000
    3.7877    2.4205   19.1658 C   0  0  0  0  0  0  0  0  0  0  0  0
   12.0781    0.0316   24.1532 C   0  0  0  0  0  0  0  0  0  0  0  0
    3.3444    2.6278   20.4409 C   0  0  0  0  0  0  0  0  0  0  0  0
   12.9147   -0.6032   23.2559 C   0  0  0  0  0  0  0  0  0  0  0  0
    4.8986    1.0232   21.2985 C   0  0  0  0  0  0  0  0  0  0  0  0
   11.0005   -1.4332   22.0435 C   0  0  0  0  0  0  0  0  0  0  0  0
    5.3288    1.2339   17.6062 C   0  0  0  0  0  0  0  0  0  0  0  0
    6.8449   -0.2893   18.3747 C   0  0  0  0  0  0  0  0  0  0  0  0
    4.8238    1.4906   18.9051 C   0  0  0  0  0  0  0  0  0  0  0  0
    5.3995    0.7732   19.9944 C   0  0  0  0  0  0  0  0  0  0  0  0
   10.7056   -0.0626   23.9890 C   0  0  0  0  0  0  0  0  0  0  0  0
   10.1421   -0.7766   22.9242 C   0  0  0  0  0  0  0  0  0  0  0  0
    6.4452   -0.1472   19.6975 C   0  0  0  0  0  0  0  0  0  0  0  0
    3.8974    1.9290   21.5048 C   0  0  0  0  0  0  0  0  0  0  0  0
   12.3697   -1.3298   22.2224 C   0  0  0  0  0  0  0  0  0  0  0  0
    9.9496    0.5589   24.9527 C   0  0  0  0  0  0  0  0  0  0  0  0
    8.2504    0.0168   21.4265 C   0  0  0  0  0  0  0  0  0  0  0  0
    7.2743    2.2339   25.9911 C   0  0  0  0  0  0  0  0  0  0  0  0
    3.8271    4.5572   27.2700 C   0  0  0  0  0  0  0  0  0  0  0  0
    3.4730    5.7450   26.3980 C   0  0  0  0  0  0  0  0  0  0  0  0
    7.6484    3.1063   23.6248 C   0  0  0  0  0  0  0  0  0  0  0  0
    8.8572    3.4809   24.4312 C   0  0  0  0  0  0  0  0  0  0  0  0
    8.0155   -2.1541   22.4325 C   0  0  0  0  0  0  0  0  0  0  0  0
    6.9880   -1.9367   21.3575 C   0  0  0  0  0  0  0  0  0  0  0  0
    7.8737   -0.1194   23.8825 C   0  0  0  0  0  0  0  0  0  0  0  0
    3.0243    3.4373   26.6437 C   0  0  0  0  0  0  0  0  0  0  0  0
    3.4690    5.1796   24.9886 C   0  0  0  0  0  0  0  0  0  0  0  0
    8.6253   -0.7606   22.6923 C   0  0  3  0  0  0  0  0  0  0  0  0
    8.0937    2.2235   24.7641 C   0  0  0  0  0  0  0  0  0  0  0  0
    7.3837    1.9520   28.4592 C   0  0  0  0  0  0  0  0  0  0  0  0
    1.9764    3.2331   24.3618 C   0  0  0  0  0  0  0  0  0  0  0  0
    2.3771    3.1178   22.9043 C   0  0  0  0  0  0  0  0  0  0  0  0
    6.3072    0.3768   17.3417 N   0  0  0  0  0  0  0  0  0  0  0  0
    7.2305   -0.6898   20.7785 N   0  0  0  0  0  0  0  0  0  0  0  0
    8.6625    1.0133   24.4989 N   0  0  0  0  0  0  0  0  0  0  0  0
    7.9894    1.9860   27.1473 N   0  0  0  0  0  0  0  0  0  0  0  0
    3.1487    3.7059   25.1600 N   0  3  0  0  0  0  0  0  0  0  0  0
   10.3233    0.7301   26.1084 O   0  0  0  0  0  0  0  0  0  0  0  0
    8.8205    1.0412   21.0776 O   0  0  0  0  0  0  0  0  0  0  0  0
    6.0711    2.4522   25.9123 O   0  0  0  0  0  0  0  0  0  0  0  0
    3.4243    2.1582   22.7713 O   0  0  0  0  0  0  0  0  0  0  0  0
   13.4287   -2.1467   21.1125 Cl  0  0  0  0  0  0  0  0  0  0  0  0
    3.3418    2.9747   18.3367 H   0  0  0  0  0  0  0  0  0  0  0  0
   12.5188    0.5959   24.9712 H   0  0  0  0  0  0  0  0  0  0  0  0
    2.5418    3.3504   20.6305 H   0  0  0  0  0  0  0  0  0  0  0  0
   13.9920   -0.5225   23.3819 H   0  0  0  0  0  0  0  0  0  0  0  0
    5.3175    0.4856   22.1531 H   0  0  0  0  0  0  0  0  0  0  0  0
   10.6143   -2.0253   21.2265 H   0  0  0  0  0  0  0  0  0  0  0  0
    4.9141    1.7513   16.7475 H   0  0  0  0  0  0  0  0  0  0  0  0
    7.6459   -0.9759   18.1036 H   0  0  0  0  0  0  0  0  0  0  0  0
    4.9007    4.3425   27.2112 H   0  0  0  0  0  0  0  0  0  0  0  0
    3.5641    4.7198   28.3189 H   0  0  0  0  0  0  0  0  0  0  0  0
    2.4752    6.1189   26.6566 H   0  0  0  0  0  0  0  0  0  0  0  0
    4.1848    6.5679   26.5104 H   0  0  0  0  0  0  0  0  0  0  0  0
    6.7552    3.7072   23.7499 H   0  0  0  0  0  0  0  0  0  0  0  0
    7.8098    2.7620   22.6100 H   0  0  0  0  0  0  0  0  0  0  0  0
    9.8268    3.3863   23.9564 H   0  0  0  0  0  0  0  0  0  0  0  0
    8.7731    4.3325   25.0962 H   0  0  0  0  0  0  0  0  0  0  0  0
    7.5125   -2.5270   23.3387 H   0  0  0  0  0  0  0  0  0  0  0  0
    8.7589   -2.9107   22.1432 H   0  0  0  0  0  0  0  0  0  0  0  0
    7.0600   -2.7259   20.5720 H   0  0  0  0  0  0  0  0  0  0  0  0
    5.9527   -1.9961   21.7709 H   0  0  0  0  0  0  0  0  0  0  0  0
    6.9276    0.3247   23.5633 H   0  0  0  0  0  0  0  0  0  0  0  0
    7.6527   -0.8545   24.6567 H   0  0  0  0  0  0  0  0  0  0  0  0
    3.4181    2.4402   26.8531 H   0  0  0  0  0  0  0  0  0  0  0  0
    1.9649    3.5034   26.9111 H   0  0  0  0  0  0  0  0  0  0  0  0
    2.7177    5.6482   24.3469 H   0  0  0  0  0  0  0  0  0  0  0  0
    4.4563    5.2368   24.5202 H   0  0  0  0  0  0  0  0  0  0  0  0
    7.4071    2.9593   28.9006 H   0  0  0  0  0  0  0  0  0  0  0  0
    6.3405    1.6139   28.3726 H   0  0  0  0  0  0  0  0  0  0  0  0
    7.9423    1.2566   29.1029 H   0  0  0  0  0  0  0  0  0  0  0  0
    1.6834    2.2686   24.7861 H   0  0  0  0  0  0  0  0  0  0  0  0
    1.1814    3.9695   24.5057 H   0  0  0  0  0  0  0  0  0  0  0  0
    1.5250    2.7720   22.3109 H   0  0  0  0  0  0  0  0  0  0  0  0
    2.7198    4.0767   22.5020 H   0  0  0  0  0  0  0  0  0  0  0  0
    8.9884    1.8197   27.0716 H   0  0  0  0  0  0  0  0  0  0  0  0
    3.9730    3.1832   24.8304 H   0  0  0  0  0  0  0  0  0  0  0  0
  1  3  2  0  0  0  0
  1  9  1  0  0  0  0
  2  4  2  0  0  0  0
  2 11  1  0  0  0  0
  3 14  1  0  0  0  0
  4 15  1  0  0  0  0
  5 10  1  0  0  0  0
  5 14  2  0  0  0  0
  6 12  1  0  0  0  0
  6 15  2  0  0  0  0
  7  9  2  0  0  0  0
  7 33  1  0  0  0  0
  8 13  1  0  0  0  0
  8 33  2  0  0  0  0
  9 10  1  0  0  0  0
 10 13  2  0  0  0  0
 11 12  2  0  0  0  0
 11 16  1  0  0  0  0
 12 28  1  0  0  0  0
 13 34  1  0  0  0  0
 14 41  1  0  0  0  0
 15 42  1  0  0  0  0
 16 35  1  0  0  0  0
 16 38  2  0  0  0  0
 17 28  1  0  0  0  0
 17 34  1  0  0  0  0
 17 39  2  0  0  0  0
 18 29  1  0  0  0  0
 18 36  1  0  0  0  0
 18 40  2  0  0  0  0
 19 20  1  0  0  0  0
 19 26  1  0  0  0  0
 20 27  1  0  0  0  0
 21 22  1  0  0  0  0
 21 29  1  0  0  0  0
 22 29  1  0  0  0  0
 23 24  1  0  0  0  0
 23 28  1  0  0  0  0
 24 34  1  0  0  0  0
 25 28  1  0  0  0  0
 25 35  1  0  0  0  0
 26 37  1  0  0  0  0
 27 37  1  0  0  0  0
 29 35  1  0  0  0  0
 30 36  1  0  0  0  0
 31 32  1  0  0  0  0
 31 37  1  0  0  0  0
 32 41  1  0  0  0  0
  1 43  1  0  0  0  0
  2 44  1  0  0  0  0
  3 45  1  0  0  0  0
  4 46  1  0  0  0  0
  5 47  1  0  0  0  0
  6 48  1  0  0  0  0
  7 49  1  0  0  0  0
  8 50  1  0  0  0  0
 19 51  1  0  0  0  0
 19 52  1  0  0  0  0
 20 53  1  0  0  0  0
 20 54  1  0  0  0  0
 21 55  1  0  0  0  0
 21 56  1  0  0  0  0
 22 57  1  0  0  0  0
 22 58  1  0  0  0  0
 23 59  1  0  0  0  0
 23 60  1  0  0  0  0
 24 61  1  0  0  0  0
 24 62  1  0  0  0  0
 25 63  1  0  0  0  0
 25 64  1  0  0  0  0
 26 65  1  0  0  0  0
 26 66  1  0  0  0  0
 27 67  1  0  0  0  0
 27 68  1  0  0  0  0
 30 69  1  0  0  0  0
 30 70  1  0  0  0  0
 30 71  1  0  0  0  0
 31 72  1  0  0  0  0
 31 73  1  0  0  0  0
 32 74  1  0  0  0  0
 32 75  1  0  0  0  0
 36 76  1  0  0  0  0
 37 77  1  0  0  0  0
M  CHG  1  37   1
M  END
> <scaffold>
tetrahydroisoquinoline-5spiro-isoquinoline

> <compound>
EDJ-MED-dfa1d800-1

> <compound_smiles>
CNC(=O)C1(CC1)N2CC3(CCN(C3=O)c4cncc5c4cc(cc5)OCCN6CCCC6)c7cc(ccc7C2=O)Cl

> <enantiomer_smiles>
CNC(=O)C1(CC1)N2C[C@]3(CCN(C3=O)c4cncc5c4cc(cc5)OCCN6CCCC6)c7cc(ccc7C2=O)Cl

> <clash_score>
0

> <docking_score>
3.4028234663852886e+38

> <overlap_score>
0.9878814220428467

> <MMFF_internal_energy>
161.95089987890336

> <docked_smiles>
CNC(=O)C1(CC1)N2C[C@]3(CCN(C3=O)c4cncc5c4cc(cc5)OCC[NH+]6CCCC6)c7cc(ccc7C2=O)Cl

$$$$
EDJ-MED-5cd3920d-1_1
  -OEChem-01042202313D

 62 67  0     1  0  0  0  0  0999 V2000
    6.5923    2.6670   28.4298 C   0  0  0  0  0  0  0  0  0  0  0  0
    3.7877    2.4205   19.1658 C   0  0  0  0  0  0  0  0  0  0  0  0
   12.0781    0.0316   24.1532 C   0  0  0  0  0  0  0  0  0  0  0  0
    3.3444    2.6278   20.4409 C   0  0  0  0  0  0  0  0  0  0  0  0
   12.9147   -0.6032   23.2559 C   0  0  0  0  0  0  0  0  0  0  0  0
    4.8986    1.0232   21.2985 C   0  0  0  0  0  0  0  0  0  0  0  0
   11.0005   -1.4332   22.0435 C   0  0  0  0  0  0  0  0  0  0  0  0
    5.3288    1.2339   17.6062 C   0  0  0  0  0  0  0  0  0  0  0  0
    6.8449   -0.2893   18.3747 C   0  0  0  0  0  0  0  0  0  0  0  0
    4.8238    1.4906   18.9051 C   0  0  0  0  0  0  0  0  0  0  0  0
    5.3995    0.7732   19.9944 C   0  0  0  0  0  0  0  0  0  0  0  0
   10.7056   -0.0626   23.9890 C   0  0  0  0  0  0  0  0  0  0  0  0
   10.1421   -0.7766   22.9242 C   0  0  0  0  0  0  0  0  0  0  0  0
    6.4452   -0.1472   19.6975 C   0  0  0  0  0  0  0  0  0  0  0  0
    3.8974    1.9290   21.5048 C   0  0  0  0  0  0  0  0  0  0  0  0
   12.3697   -1.3298   22.2224 C   0  0  0  0  0  0  0  0  0  0  0  0
    8.2504    0.0168   21.4265 C   0  0  0  0  0  0  0  0  0  0  0  0
    9.9496    0.5589   24.9527 C   0  0  0  0  0  0  0  0  0  0  0  0
    5.7974    0.2895   28.6968 C   0  0  0  0  0  0  0  0  0  0  0  0
    5.0772    0.8711   27.5163 C   0  0  0  0  0  0  0  0  0  0  0  0
    8.0155   -2.1541   22.4325 C   0  0  0  0  0  0  0  0  0  0  0  0
    6.9880   -1.9367   21.3575 C   0  0  0  0  0  0  0  0  0  0  0  0
    7.8737   -0.1194   23.8825 C   0  0  0  0  0  0  0  0  0  0  0  0
    6.4702    1.3516   27.8565 C   0  0  0  0  0  0  0  0  0  0  0  0
    8.6253   -0.7606   22.6923 C   0  0  3  0  0  0  0  0  0  0  0  0
    7.6088    0.9304   26.9546 C   0  0  0  0  0  0  0  0  0  0  0  0
    3.5340    3.4835   23.2760 C   0  0  0  0  0  0  0  0  0  0  0  0
    6.6907    3.7268   28.8917 N   0  0  0  0  0  0  0  0  0  0  0  0
    6.3072    0.3768   17.3417 N   0  0  0  0  0  0  0  0  0  0  0  0
    7.2305   -0.6898   20.7785 N   0  0  0  0  0  0  0  0  0  0  0  0
    8.6625    1.0133   24.4989 N   0  0  3  0  0  0  0  0  0  0  0  0
    8.8314    1.0394   21.0790 O   0  0  0  0  0  0  0  0  0  0  0  0
    6.4559    2.2241   24.9990 O   0  0  0  0  0  0  0  0  0  0  0  0
    8.6119    3.1278   25.9583 O   0  0  0  0  0  0  0  0  0  0  0  0
    3.4243    2.1582   22.7713 O   0  0  0  0  0  0  0  0  0  0  0  0
    2.3980    4.1460   22.9367 F   0  0  0  0  0  0  0  0  0  0  0  0
    3.5661    3.4426   24.6307 F   0  0  0  0  0  0  0  0  0  0  0  0
    7.7725    2.0180   25.5623 S   0  0  0  0  0  0  0  0  0  0  0  0
   13.4285   -2.1410   21.1076 Cl  0  0  0  0  0  0  0  0  0  0  0  0
    3.3418    2.9747   18.3367 H   0  0  0  0  0  0  0  0  0  0  0  0
   12.5038    0.5986   24.9731 H   0  0  0  0  0  0  0  0  0  0  0  0
    2.5418    3.3504   20.6305 H   0  0  0  0  0  0  0  0  0  0  0  0
   13.9925   -0.5165   23.3773 H   0  0  0  0  0  0  0  0  0  0  0  0
    5.3175    0.4856   22.1531 H   0  0  0  0  0  0  0  0  0  0  0  0
   10.6052   -2.0169   21.2237 H   0  0  0  0  0  0  0  0  0  0  0  0
    4.9141    1.7513   16.7476 H   0  0  0  0  0  0  0  0  0  0  0  0
    7.6459   -0.9759   18.1036 H   0  0  0  0  0  0  0  0  0  0  0  0
    9.7866   -0.1187   25.8304 H   0  0  0  0  0  0  0  0  0  0  0  0
   10.4816    1.4567   25.3600 H   0  0  0  0  0  0  0  0  0  0  0  0
    5.4358    0.5518   29.6847 H   0  0  0  0  0  0  0  0  0  0  0  0
    6.1481   -0.7331   28.6181 H   0  0  0  0  0  0  0  0  0  0  0  0
    4.9448    0.2375   26.6469 H   0  0  0  0  0  0  0  0  0  0  0  0
    4.2331    1.5218   27.7145 H   0  0  0  0  0  0  0  0  0  0  0  0
    7.5167   -2.5459   23.3332 H   0  0  0  0  0  0  0  0  0  0  0  0
    8.7666   -2.9029   22.1426 H   0  0  0  0  0  0  0  0  0  0  0  0
    7.0601   -2.7250   20.5715 H   0  0  0  0  0  0  0  0  0  0  0  0
    5.9530   -1.9963   21.7709 H   0  0  0  0  0  0  0  0  0  0  0  0
    6.8882    0.2643   23.5640 H   0  0  0  0  0  0  0  0  0  0  0  0
    7.6667   -0.8657   24.6729 H   0  0  0  0  0  0  0  0  0  0  0  0
    7.4436   -0.0759   26.5599 H   0  0  0  0  0  0  0  0  0  0  0  0
    8.5609    0.9485   27.4918 H   0  0  0  0  0  0  0  0  0  0  0  0
    4.3921    4.0331   22.8746 H   0  0  0  0  0  0  0  0  0  0  0  0
  1 24  1  0  0  0  0
  1 28  3  0  0  0  0
  2  4  2  0  0  0  0
  2 10  1  0  0  0  0
  3  5  2  0  0  0  0
  3 12  1  0  0  0  0
  4 15  1  0  0  0  0
  5 16  1  0  0  0  0
  6 11  1  0  0  0  0
  6 15  2  0  0  0  0
  7 13  1  0  0  0  0
  7 16  2  0  0  0  0
  8 10  2  0  0  0  0
  8 29  1  0  0  0  0
  9 14  1  0  0  0  0
  9 29  2  0  0  0  0
 10 11  1  0  0  0  0
 11 14  2  0  0  0  0
 12 13  2  0  0  0  0
 12 18  1  0  0  0  0
 13 25  1  0  0  0  0
 14 30  1  0  0  0  0
 15 35  1  0  0  0  0
 16 39  1  0  0  0  0
 17 25  1  0  0  0  0
 17 30  1  0  0  0  0
 17 32  2  0  0  0  0
 18 31  1  0  0  0  0
 19 20  1  0  0  0  0
 19 24  1  0  0  0  0
 20 24  1  0  0  0  0
 21 22  1  0  0  0  0
 21 25  1  0  0  0  0
 22 30  1  0  0  0  0
 23 25  1  0  0  0  0
 23 31  1  0  0  0  0
 24 26  1  0  0  0  0
 26 38  1  0  0  0  0
 27 35  1  0  0  0  0
 27 36  1  0  0  0  0
 27 37  1  0  0  0  0
 31 38  1  0  0  0  0
 33 38  2  0  0  0  0
 34 38  2  0  0  0  0
  2 40  1  0  0  0  0
  3 41  1  0  0  0  0
  4 42  1  0  0  0  0
  5 43  1  0  0  0  0
  6 44  1  0  0  0  0
  7 45  1  0  0  0  0
  8 46  1  0  0  0  0
  9 47  1  0  0  0  0
 18 48  1  0  0  0  0
 18 49  1  0  0  0  0
 19 50  1  0  0  0  0
 19 51  1  0  0  0  0
 20 52  1  0  0  0  0
 20 53  1  0  0  0  0
 21 54  1  0  0  0  0
 21 55  1  0  0  0  0
 22 56  1  0  0  0  0
 22 57  1  0  0  0  0
 23 58  1  0  0  0  0
 23 59  1  0  0  0  0
 26 60  1  0  0  0  0
 26 61  1  0  0  0  0
 27 62  1  0  0  0  0
M  END
> <scaffold>
tetrahydroisoquinoline-5spiro-isoquinoline

> <compound>
EDJ-MED-5cd3920d-1

> <compound_smiles>
c1cc2cncc(c2cc1OC(F)F)N3CCC4(C3=O)CN(Cc5c4cc(cc5)Cl)S(=O)(=O)CC6(CC6)C#N

> <enantiomer_smiles>
c1cc2cncc(c2cc1OC(F)F)N3CC[C@]4(C3=O)C[N@](Cc5c4cc(cc5)Cl)S(=O)(=O)CC6(CC6)C#N

> <clash_score>
0

> <docking_score>
3.4028234663852886e+38

> <overlap_score>
0.9764345288276672

> <MMFF_internal_energy>
116.44320225650749

> <docked_smiles>
c1cc2cncc(c2cc1OC(F)F)N3CC[C@]4(C3=O)C[N@](Cc5c4cc(cc5)Cl)S(=O)(=O)CC6(CC6)C#N

$$$$
MAT-POS-38eb6498-1_1
  -OEChem-01042202313D

 74 79  0     1  0  0  0  0  0999 V2000
    6.5923    2.6670   28.4298 C   0  0  0  0  0  0  0  0  0  0  0  0
    3.7877    2.4205   19.1658 C   0  0  0  0  0  0  0  0  0  0  0  0
   12.0781    0.0316   24.1532 C   0  0  0  0  0  0  0  0  0  0  0  0
    3.3444    2.6278   20.4409 C   0  0  0  0  0  0  0  0  0  0  0  0
   12.9147   -0.6032   23.2559 C   0  0  0  0  0  0  0  0  0  0  0  0
    4.8986    1.0232   21.2985 C   0  0  0  0  0  0  0  0  0  0  0  0
   11.0005   -1.4332   22.0435 C   0  0  0  0  0  0  0  0  0  0  0  0
    5.3288    1.2339   17.6062 C   0  0  0  0  0  0  0  0  0  0  0  0
    6.8449   -0.2893   18.3747 C   0  0  0  0  0  0  0  0  0  0  0  0
    4.8238    1.4906   18.9051 C   0  0  0  0  0  0  0  0  0  0  0  0
    5.3995    0.7732   19.9944 C   0  0  0  0  0  0  0  0  0  0  0  0
   10.7056   -0.0626   23.9890 C   0  0  0  0  0  0  0  0  0  0  0  0
   10.1421   -0.7766   22.9242 C   0  0  0  0  0  0  0  0  0  0  0  0
    6.4452   -0.1472   19.6975 C   0  0  0  0  0  0  0  0  0  0  0  0
    3.8974    1.9290   21.5048 C   0  0  0  0  0  0  0  0  0  0  0  0
   12.3697   -1.3298   22.2224 C   0  0  0  0  0  0  0  0  0  0  0  0
    8.2504    0.0168   21.4265 C   0  0  0  0  0  0  0  0  0  0  0  0
    9.9496    0.5589   24.9527 C   0  0  0  0  0  0  0  0  0  0  0  0
    5.7974    0.2895   28.6968 C   0  0  0  0  0  0  0  0  0  0  0  0
    5.0772    0.8711   27.5163 C   0  0  0  0  0  0  0  0  0  0  0  0
    8.0155   -2.1541   22.4325 C   0  0  0  0  0  0  0  0  0  0  0  0
    6.9880   -1.9367   21.3575 C   0  0  0  0  0  0  0  0  0  0  0  0
    7.8737   -0.1194   23.8825 C   0  0  0  0  0  0  0  0  0  0  0  0
    6.4702    1.3516   27.8565 C   0  0  0  0  0  0  0  0  0  0  0  0
    8.6253   -0.7606   22.6923 C   0  0  3  0  0  0  0  0  0  0  0  0
    3.7143    4.9960   24.6333 C   0  0  0  0  0  0  0  0  0  0  0  0
    2.8395    3.7935   26.6306 C   0  0  0  0  0  0  0  0  0  0  0  0
    7.6088    0.9304   26.9546 C   0  0  0  0  0  0  0  0  0  0  0  0
    1.9771    3.2322   24.3631 C   0  0  0  0  0  0  0  0  0  0  0  0
    2.3771    3.1176   22.9053 C   0  0  0  0  0  0  0  0  0  0  0  0
    6.6907    3.7268   28.8917 N   0  0  0  0  0  0  0  0  0  0  0  0
    6.3072    0.3768   17.3417 N   0  0  0  0  0  0  0  0  0  0  0  0
    7.2305   -0.6898   20.7785 N   0  0  0  0  0  0  0  0  0  0  0  0
    8.6625    1.0133   24.4989 N   0  0  3  0  0  0  0  0  0  0  0  0
    3.1417    3.7015   25.1554 N   0  3  0  0  0  0  0  0  0  0  0  0
    8.8314    1.0394   21.0790 O   0  0  0  0  0  0  0  0  0  0  0  0
    6.4559    2.2241   24.9990 O   0  0  0  0  0  0  0  0  0  0  0  0
    8.6119    3.1278   25.9583 O   0  0  0  0  0  0  0  0  0  0  0  0
    3.4243    2.1582   22.7713 O   0  0  0  0  0  0  0  0  0  0  0  0
    7.7725    2.0180   25.5623 S   0  0  0  0  0  0  0  0  0  0  0  0
   13.4285   -2.1410   21.1076 Cl  0  0  0  0  0  0  0  0  0  0  0  0
    3.3418    2.9747   18.3367 H   0  0  0  0  0  0  0  0  0  0  0  0
   12.5038    0.5986   24.9731 H   0  0  0  0  0  0  0  0  0  0  0  0
    2.5418    3.3504   20.6305 H   0  0  0  0  0  0  0  0  0  0  0  0
   13.9925   -0.5165   23.3773 H   0  0  0  0  0  0  0  0  0  0  0  0
    5.3175    0.4856   22.1531 H   0  0  0  0  0  0  0  0  0  0  0  0
   10.6052   -2.0169   21.2237 H   0  0  0  0  0  0  0  0  0  0  0  0
    4.9141    1.7513   16.7476 H   0  0  0  0  0  0  0  0  0  0  0  0
    7.6459   -0.9759   18.1036 H   0  0  0  0  0  0  0  0  0  0  0  0
    9.7866   -0.1187   25.8304 H   0  0  0  0  0  0  0  0  0  0  0  0
   10.4816    1.4567   25.3600 H   0  0  0  0  0  0  0  0  0  0  0  0
    5.4358    0.5518   29.6847 H   0  0  0  0  0  0  0  0  0  0  0  0
    6.1481   -0.7331   28.6181 H   0  0  0  0  0  0  0  0  0  0  0  0
    4.9448    0.2375   26.6469 H   0  0  0  0  0  0  0  0  0  0  0  0
    4.2331    1.5218   27.7145 H   0  0  0  0  0  0  0  0  0  0  0  0
    7.5167   -2.5459   23.3332 H   0  0  0  0  0  0  0  0  0  0  0  0
    8.7666   -2.9029   22.1426 H   0  0  0  0  0  0  0  0  0  0  0  0
    7.0601   -2.7250   20.5715 H   0  0  0  0  0  0  0  0  0  0  0  0
    5.9530   -1.9963   21.7709 H   0  0  0  0  0  0  0  0  0  0  0  0
    6.8882    0.2643   23.5640 H   0  0  0  0  0  0  0  0  0  0  0  0
    7.6667   -0.8657   24.6729 H   0  0  0  0  0  0  0  0  0  0  0  0
    2.9418    5.7622   24.7212 H   0  0  0  0  0  0  0  0  0  0  0  0
    4.5857    5.2454   25.2417 H   0  0  0  0  0  0  0  0  0  0  0  0
    3.9955    4.8403   23.5901 H   0  0  0  0  0  0  0  0  0  0  0  0
    2.0473    4.5325   26.7637 H   0  0  0  0  0  0  0  0  0  0  0  0
    2.5166    2.8066   26.9677 H   0  0  0  0  0  0  0  0  0  0  0  0
    3.7540    4.1025   27.1404 H   0  0  0  0  0  0  0  0  0  0  0  0
    7.4436   -0.0759   26.5599 H   0  0  0  0  0  0  0  0  0  0  0  0
    8.5609    0.9485   27.4918 H   0  0  0  0  0  0  0  0  0  0  0  0
    1.6844    2.2675   24.7871 H   0  0  0  0  0  0  0  0  0  0  0  0
    1.1821    3.9684   24.5077 H   0  0  0  0  0  0  0  0  0  0  0  0
    1.5247    2.7720   22.3121 H   0  0  0  0  0  0  0  0  0  0  0  0
    2.7195    4.0767   22.5033 H   0  0  0  0  0  0  0  0  0  0  0  0
    3.8926    2.9969   25.0600 H   0  0  0  0  0  0  0  0  0  0  0  0
  1 24  1  0  0  0  0
  1 31  3  0  0  0  0
  2  4  2  0  0  0  0
  2 10  1  0  0  0  0
  3  5  2  0  0  0  0
  3 12  1  0  0  0  0
  4 15  1  0  0  0  0
  5 16  1  0  0  0  0
  6 11  1  0  0  0  0
  6 15  2  0  0  0  0
  7 13  1  0  0  0  0
  7 16  2  0  0  0  0
  8 10  2  0  0  0  0
  8 32  1  0  0  0  0
  9 14  1  0  0  0  0
  9 32  2  0  0  0  0
 10 11  1  0  0  0  0
 11 14  2  0  0  0  0
 12 13  2  0  0  0  0
 12 18  1  0  0  0  0
 13 25  1  0  0  0  0
 14 33  1  0  0  0  0
 15 39  1  0  0  0  0
 16 41  1  0  0  0  0
 17 25  1  0  0  0  0
 17 33  1  0  0  0  0
 17 36  2  0  0  0  0
 18 34  1  0  0  0  0
 19 20  1  0  0  0  0
 19 24  1  0  0  0  0
 20 24  1  0  0  0  0
 21 22  1  0  0  0  0
 21 25  1  0  0  0  0
 22 33  1  0  0  0  0
 23 25  1  0  0  0  0
 23 34  1  0  0  0  0
 24 28  1  0  0  0  0
 26 35  1  0  0  0  0
 27 35  1  0  0  0  0
 28 40  1  0  0  0  0
 29 30  1  0  0  0  0
 29 35  1  0  0  0  0
 30 39  1  0  0  0  0
 34 40  1  0  0  0  0
 37 40  2  0  0  0  0
 38 40  2  0  0  0  0
  2 42  1  0  0  0  0
  3 43  1  0  0  0  0
  4 44  1  0  0  0  0
  5 45  1  0  0  0  0
  6 46  1  0  0  0  0
  7 47  1  0  0  0  0
  8 48  1  0  0  0  0
  9 49  1  0  0  0  0
 18 50  1  0  0  0  0
 18 51  1  0  0  0  0
 19 52  1  0  0  0  0
 19 53  1  0  0  0  0
 20 54  1  0  0  0  0
 20 55  1  0  0  0  0
 21 56  1  0  0  0  0
 21 57  1  0  0  0  0
 22 58  1  0  0  0  0
 22 59  1  0  0  0  0
 23 60  1  0  0  0  0
 23 61  1  0  0  0  0
 26 62  1  0  0  0  0
 26 63  1  0  0  0  0
 26 64  1  0  0  0  0
 27 65  1  0  0  0  0
 27 66  1  0  0  0  0
 27 67  1  0  0  0  0
 28 68  1  0  0  0  0
 28 69  1  0  0  0  0
 29 70  1  0  0  0  0
 29 71  1  0  0  0  0
 30 72  1  0  0  0  0
 30 73  1  0  0  0  0
 35 74  1  0  0  0  0
M  CHG  1  35   1
M  END
> <scaffold>
tetrahydroisoquinoline-5spiro-isoquinoline

> <compound>
MAT-POS-38eb6498-1

> <compound_smiles>
CN(C)CCOc1ccc2cncc(c2c1)N3CCC4(C3=O)CN(Cc5c4cc(cc5)Cl)S(=O)(=O)CC6(CC6)C#N

> <enantiomer_smiles>
CN(C)CCOc1ccc2cncc(c2c1)N3CC[C@]4(C3=O)C[N@@](Cc5c4cc(cc5)Cl)S(=O)(=O)CC6(CC6)C#N

> <clash_score>
0

> <docking_score>
3.4028234663852886e+38

> <overlap_score>
0.9734969139099121

> <MMFF_internal_energy>
138.41401042477685

> <docked_smiles>
C[NH+](C)CCOc1ccc2cncc(c2c1)N3CC[C@]4(C3=O)C[N@](Cc5c4cc(cc5)Cl)S(=O)(=O)CC6(CC6)C#N

$$$$
LUO-POS-8484f2d3-2_1
  -OEChem-01042202313D

 74 79  0     1  0  0  0  0  0999 V2000
    8.6658    5.6513   23.6063 C   0  0  0  0  0  0  0  0  0  0  0  0
    3.7877    2.4205   19.1658 C   0  0  0  0  0  0  0  0  0  0  0  0
   12.0781    0.0316   24.1532 C   0  0  0  0  0  0  0  0  0  0  0  0
    3.3444    2.6278   20.4409 C   0  0  0  0  0  0  0  0  0  0  0  0
   12.9147   -0.6032   23.2559 C   0  0  0  0  0  0  0  0  0  0  0  0
    4.8986    1.0232   21.2985 C   0  0  0  0  0  0  0  0  0  0  0  0
   11.0005   -1.4332   22.0435 C   0  0  0  0  0  0  0  0  0  0  0  0
    5.3288    1.2339   17.6062 C   0  0  0  0  0  0  0  0  0  0  0  0
    6.8449   -0.2893   18.3747 C   0  0  0  0  0  0  0  0  0  0  0  0
    4.8238    1.4906   18.9051 C   0  0  0  0  0  0  0  0  0  0  0  0
    5.3995    0.7732   19.9944 C   0  0  0  0  0  0  0  0  0  0  0  0
   10.7056   -0.0626   23.9890 C   0  0  0  0  0  0  0  0  0  0  0  0
   10.1421   -0.7766   22.9242 C   0  0  0  0  0  0  0  0  0  0  0  0
    6.4452   -0.1472   19.6975 C   0  0  0  0  0  0  0  0  0  0  0  0
    3.8974    1.9290   21.5048 C   0  0  0  0  0  0  0  0  0  0  0  0
   12.3697   -1.3298   22.2224 C   0  0  0  0  0  0  0  0  0  0  0  0
    8.2504    0.0168   21.4265 C   0  0  0  0  0  0  0  0  0  0  0  0
    9.9496    0.5589   24.9527 C   0  0  0  0  0  0  0  0  0  0  0  0
    7.0423    5.7352   25.5333 C   0  0  0  0  0  0  0  0  0  0  0  0
    6.3445    5.0581   24.3908 C   0  0  0  0  0  0  0  0  0  0  0  0
    8.0155   -2.1541   22.4325 C   0  0  0  0  0  0  0  0  0  0  0  0
    6.9880   -1.9367   21.3575 C   0  0  0  0  0  0  0  0  0  0  0  0
    7.8737   -0.1194   23.8825 C   0  0  0  0  0  0  0  0  0  0  0  0
    7.8437    4.9249   24.5392 C   0  0  0  0  0  0  0  0  0  0  0  0
    8.6253   -0.7606   22.6923 C   0  0  1  0  0  0  0  0  0  0  0  0
    0.9123   -0.1122   23.1452 C   0  0  0  0  0  0  0  0  0  0  0  0
   -0.1302    1.3078   24.9051 C   0  0  0  0  0  0  0  0  0  0  0  0
    8.3989    3.5924   24.9901 C   0  0  0  0  0  0  0  0  0  0  0  0
    2.3490    1.2022   24.6977 C   0  0  0  0  0  0  0  0  0  0  0  0
    3.4799    1.0737   23.6963 C   0  0  0  0  0  0  0  0  0  0  0  0
    9.3281    6.2366   22.8548 N   0  0  0  0  0  0  0  0  0  0  0  0
    6.3072    0.3768   17.3417 N   0  0  0  0  0  0  0  0  0  0  0  0
    7.2305   -0.6898   20.7785 N   0  0  0  0  0  0  0  0  0  0  0  0
    8.6625    1.0133   24.4989 N   0  0  3  0  0  0  0  0  0  0  0  0
    1.0503    1.1360   23.9814 N   0  3  0  0  0  0  0  0  0  0  0  0
    8.7590    1.0938   21.1339 O   0  0  0  0  0  0  0  0  0  0  0  0
    7.4185    2.5202   22.8183 O   0  0  0  0  0  0  0  0  0  0  0  0
    9.9256    2.7344   23.0508 O   0  0  0  0  0  0  0  0  0  0  0  0
    3.4243    2.1582   22.7713 O   0  0  0  0  0  0  0  0  0  0  0  0
    8.6205    2.4836   23.6226 S   0  0  0  0  0  0  0  0  0  0  0  0
   13.4282   -2.1430   21.1088 Cl  0  0  0  0  0  0  0  0  0  0  0  0
    3.3418    2.9747   18.3367 H   0  0  0  0  0  0  0  0  0  0  0  0
   12.5037    0.5936   24.9766 H   0  0  0  0  0  0  0  0  0  0  0  0
    2.5418    3.3504   20.6305 H   0  0  0  0  0  0  0  0  0  0  0  0
   13.9925   -0.5222   23.3811 H   0  0  0  0  0  0  0  0  0  0  0  0
    5.3175    0.4856   22.1531 H   0  0  0  0  0  0  0  0  0  0  0  0
   10.6052   -2.0226   21.2278 H   0  0  0  0  0  0  0  0  0  0  0  0
    4.9141    1.7513   16.7475 H   0  0  0  0  0  0  0  0  0  0  0  0
    7.6459   -0.9759   18.1036 H   0  0  0  0  0  0  0  0  0  0  0  0
    9.7611   -0.1282   25.8170 H   0  0  0  0  0  0  0  0  0  0  0  0
   10.4950    1.4394   25.3807 H   0  0  0  0  0  0  0  0  0  0  0  0
    7.1131    6.8168   25.5083 H   0  0  0  0  0  0  0  0  0  0  0  0
    6.8883    5.3310   26.5271 H   0  0  0  0  0  0  0  0  0  0  0  0
    5.7222    4.2006   24.6197 H   0  0  0  0  0  0  0  0  0  0  0  0
    5.9477    5.6870   23.6019 H   0  0  0  0  0  0  0  0  0  0  0  0
    7.5816   -2.6066   23.3357 H   0  0  0  0  0  0  0  0  0  0  0  0
    8.7766   -2.8606   22.0650 H   0  0  0  0  0  0  0  0  0  0  0  0
    7.0239   -2.7507   20.5948 H   0  0  0  0  0  0  0  0  0  0  0  0
    5.9570   -1.9477   21.7832 H   0  0  0  0  0  0  0  0  0  0  0  0
    6.8900    0.2772   23.5669 H   0  0  0  0  0  0  0  0  0  0  0  0
    7.6602   -0.8709   24.6633 H   0  0  0  0  0  0  0  0  0  0  0  0
    0.9469   -0.9706   23.8184 H   0  0  0  0  0  0  0  0  0  0  0  0
   -0.0452   -0.0607   22.6234 H   0  0  0  0  0  0  0  0  0  0  0  0
    1.7439   -0.1342   22.4382 H   0  0  0  0  0  0  0  0  0  0  0  0
   -0.1192    0.4815   25.6182 H   0  0  0  0  0  0  0  0  0  0  0  0
   -0.0193    2.2672   25.4141 H   0  0  0  0  0  0  0  0  0  0  0  0
   -1.0362    1.2889   24.2964 H   0  0  0  0  0  0  0  0  0  0  0  0
    7.7201    3.1037   25.6945 H   0  0  0  0  0  0  0  0  0  0  0  0
    9.3752    3.7161   25.4665 H   0  0  0  0  0  0  0  0  0  0  0  0
    2.3659    2.1644   25.2172 H   0  0  0  0  0  0  0  0  0  0  0  0
    2.3519    0.3804   25.4186 H   0  0  0  0  0  0  0  0  0  0  0  0
    4.4426    1.1213   24.2149 H   0  0  0  0  0  0  0  0  0  0  0  0
    3.4249    0.1306   23.1428 H   0  0  0  0  0  0  0  0  0  0  0  0
    1.0143    1.9298   23.3196 H   0  0  0  0  0  0  0  0  0  0  0  0
  1 24  1  0  0  0  0
  1 31  3  0  0  0  0
  2  4  2  0  0  0  0
  2 10  1  0  0  0  0
  3  5  2  0  0  0  0
  3 12  1  0  0  0  0
  4 15  1  0  0  0  0
  5 16  1  0  0  0  0
  6 11  1  0  0  0  0
  6 15  2  0  0  0  0
  7 13  1  0  0  0  0
  7 16  2  0  0  0  0
  8 10  2  0  0  0  0
  8 32  1  0  0  0  0
  9 14  1  0  0  0  0
  9 32  2  0  0  0  0
 10 11  1  0  0  0  0
 11 14  2  0  0  0  0
 12 13  2  0  0  0  0
 12 18  1  0  0  0  0
 13 25  1  6  0  0  0
 14 33  1  0  0  0  0
 15 39  1  0  0  0  0
 16 41  1  0  0  0  0
 17 25  1  1  0  0  0
 17 33  1  0  0  0  0
 17 36  2  0  0  0  0
 18 34  1  0  0  0  0
 19 20  1  0  0  0  0
 19 24  1  0  0  0  0
 20 24  1  0  0  0  0
 21 22  1  0  0  0  0
 21 25  1  1  0  0  0
 22 33  1  0  0  0  0
 23 25  1  6  0  0  0
 23 34  1  0  0  0  0
 24 28  1  0  0  0  0
 26 35  1  0  0  0  0
 27 35  1  0  0  0  0
 28 40  1  0  0  0  0
 29 30  1  0  0  0  0
 29 35  1  0  0  0  0
 30 39  1  0  0  0  0
 34 40  1  0  0  0  0
 37 40  2  0  0  0  0
 38 40  2  0  0  0  0
  2 42  1  0  0  0  0
  3 43  1  0  0  0  0
  4 44  1  0  0  0  0
  5 45  1  0  0  0  0
  6 46  1  0  0  0  0
  7 47  1  0  0  0  0
  8 48  1  0  0  0  0
  9 49  1  0  0  0  0
 18 50  1  0  0  0  0
 18 51  1  0  0  0  0
 19 52  1  0  0  0  0
 19 53  1  0  0  0  0
 20 54  1  0  0  0  0
 20 55  1  0  0  0  0
 21 56  1  0  0  0  0
 21 57  1  0  0  0  0
 22 58  1  0  0  0  0
 22 59  1  0  0  0  0
 23 60  1  0  0  0  0
 23 61  1  0  0  0  0
 26 62  1  0  0  0  0
 26 63  1  0  0  0  0
 26 64  1  0  0  0  0
 27 65  1  0  0  0  0
 27 66  1  0  0  0  0
 27 67  1  0  0  0  0
 28 68  1  0  0  0  0
 28 69  1  0  0  0  0
 29 70  1  0  0  0  0
 29 71  1  0  0  0  0
 30 72  1  0  0  0  0
 30 73  1  0  0  0  0
 35 74  1  0  0  0  0
M  CHG  1  35   1
M  END
> <scaffold>
tetrahydroisoquinoline-5spiro-isoquinoline

> <compound>
LUO-POS-8484f2d3-2

> <compound_smiles>
CN(C)CCOc1ccc2cncc(c2c1)N3CC[C@@]4(C3=O)CN(Cc5c4cc(cc5)Cl)S(=O)(=O)CC6(CC6)C#N

> <enantiomer_smiles>
CN(C)CCOc1ccc2cncc(c2c1)N3CC[C@@]4(C3=O)C[N@@](Cc5c4cc(cc5)Cl)S(=O)(=O)CC6(CC6)C#N

> <clash_score>
0

> <docking_score>
3.4028234663852886e+38

> <overlap_score>
0.9768838882446289

> <MMFF_internal_energy>
161.160688170722

> <docked_smiles>
C[NH+](C)CCOc1ccc2cncc(c2c1)N3CC[C@@]4(C3=O)C[N@@](Cc5c4cc(cc5)Cl)S(=O)(=O)CC6(CC6)C#N

$$$$
MAT-POS-853c0ffa-10_1
  -OEChem-01042202313D

 77 82  0     1  0  0  0  0  0999 V2000
    3.7877    2.4205   19.1658 C   0  0  0  0  0  0  0  0  0  0  0  0
   12.0781    0.0316   24.1532 C   0  0  0  0  0  0  0  0  0  0  0  0
    3.3444    2.6278   20.4409 C   0  0  0  0  0  0  0  0  0  0  0  0
   12.9147   -0.6032   23.2559 C   0  0  0  0  0  0  0  0  0  0  0  0
    4.8986    1.0232   21.2985 C   0  0  0  0  0  0  0  0  0  0  0  0
   11.0005   -1.4332   22.0435 C   0  0  0  0  0  0  0  0  0  0  0  0
    5.3288    1.2339   17.6062 C   0  0  0  0  0  0  0  0  0  0  0  0
    6.8449   -0.2893   18.3747 C   0  0  0  0  0  0  0  0  0  0  0  0
    4.8238    1.4906   18.9051 C   0  0  0  0  0  0  0  0  0  0  0  0
    5.3995    0.7732   19.9944 C   0  0  0  0  0  0  0  0  0  0  0  0
   10.7056   -0.0626   23.9890 C   0  0  0  0  0  0  0  0  0  0  0  0
   10.1421   -0.7766   22.9242 C   0  0  0  0  0  0  0  0  0  0  0  0
    6.4452   -0.1472   19.6975 C   0  0  0  0  0  0  0  0  0  0  0  0
    3.8974    1.9290   21.5048 C   0  0  0  0  0  0  0  0  0  0  0  0
   12.3697   -1.3298   22.2224 C   0  0  0  0  0  0  0  0  0  0  0  0
    8.2504    0.0168   21.4265 C   0  0  0  0  0  0  0  0  0  0  0  0
    9.9496    0.5589   24.9527 C   0  0  0  0  0  0  0  0  0  0  0  0
    6.4167    0.8657   29.2797 C   0  0  0  0  0  0  0  0  0  0  0  0
    6.7164    2.3103   28.9899 C   0  0  0  0  0  0  0  0  0  0  0  0
    8.0155   -2.1541   22.4325 C   0  0  0  0  0  0  0  0  0  0  0  0
    6.9880   -1.9367   21.3575 C   0  0  0  0  0  0  0  0  0  0  0  0
    7.8737   -0.1194   23.8825 C   0  0  0  0  0  0  0  0  0  0  0  0
    8.6253   -0.7606   22.6923 C   0  0  3  0  0  0  0  0  0  0  0  0
    6.4702    1.3516   27.8565 C   0  0  0  0  0  0  0  0  0  0  0  0
    3.7143    4.9960   24.6333 C   0  0  0  0  0  0  0  0  0  0  0  0
    2.8395    3.7935   26.6306 C   0  0  0  0  0  0  0  0  0  0  0  0
    4.7549    0.2140   26.7223 C   0  0  0  0  0  0  0  0  0  0  0  0
    7.6088    0.9304   26.9546 C   0  0  0  0  0  0  0  0  0  0  0  0
    1.9771    3.2322   24.3631 C   0  0  0  0  0  0  0  0  0  0  0  0
    2.3771    3.1176   22.9053 C   0  0  0  0  0  0  0  0  0  0  0  0
    6.3072    0.3768   17.3417 N   0  0  0  0  0  0  0  0  0  0  0  0
    7.2305   -0.6898   20.7785 N   0  0  0  0  0  0  0  0  0  0  0  0
    8.6625    1.0133   24.4989 N   0  0  3  0  0  0  0  0  0  0  0  0
    3.1417    3.7015   25.1554 N   0  3  0  0  0  0  0  0  0  0  0  0
    8.8314    1.0394   21.0790 O   0  0  0  0  0  0  0  0  0  0  0  0
    6.4559    2.2241   24.9990 O   0  0  0  0  0  0  0  0  0  0  0  0
    8.6119    3.1278   25.9583 O   0  0  0  0  0  0  0  0  0  0  0  0
    3.4243    2.1582   22.7713 O   0  0  0  0  0  0  0  0  0  0  0  0
    5.2053    1.4735   27.1852 O   0  0  0  0  0  0  0  0  0  0  0  0
    7.7725    2.0180   25.5623 S   0  0  0  0  0  0  0  0  0  0  0  0
   13.4285   -2.1410   21.1076 Cl  0  0  0  0  0  0  0  0  0  0  0  0
    3.3418    2.9747   18.3367 H   0  0  0  0  0  0  0  0  0  0  0  0
   12.5038    0.5986   24.9731 H   0  0  0  0  0  0  0  0  0  0  0  0
    2.5418    3.3504   20.6305 H   0  0  0  0  0  0  0  0  0  0  0  0
   13.9925   -0.5165   23.3773 H   0  0  0  0  0  0  0  0  0  0  0  0
    5.3175    0.4856   22.1531 H   0  0  0  0  0  0  0  0  0  0  0  0
   10.6052   -2.0169   21.2237 H   0  0  0  0  0  0  0  0  0  0  0  0
    4.9141    1.7513   16.7476 H   0  0  0  0  0  0  0  0  0  0  0  0
    7.6459   -0.9759   18.1036 H   0  0  0  0  0  0  0  0  0  0  0  0
    9.7866   -0.1187   25.8304 H   0  0  0  0  0  0  0  0  0  0  0  0
   10.4816    1.4567   25.3600 H   0  0  0  0  0  0  0  0  0  0  0  0
    7.2278    0.2488   29.6474 H   0  0  0  0  0  0  0  0  0  0  0  0
    5.4488    0.6279   29.7042 H   0  0  0  0  0  0  0  0  0  0  0  0
    5.9493    3.0398   29.2207 H   0  0  0  0  0  0  0  0  0  0  0  0
    7.7277    2.6578   29.1636 H   0  0  0  0  0  0  0  0  0  0  0  0
    7.5167   -2.5459   23.3332 H   0  0  0  0  0  0  0  0  0  0  0  0
    8.7666   -2.9029   22.1426 H   0  0  0  0  0  0  0  0  0  0  0  0
    7.0601   -2.7250   20.5715 H   0  0  0  0  0  0  0  0  0  0  0  0
    5.9530   -1.9963   21.7709 H   0  0  0  0  0  0  0  0  0  0  0  0
    6.8882    0.2643   23.5640 H   0  0  0  0  0  0  0  0  0  0  0  0
    7.6667   -0.8657   24.6729 H   0  0  0  0  0  0  0  0  0  0  0  0
    2.9418    5.7622   24.7212 H   0  0  0  0  0  0  0  0  0  0  0  0
    4.5857    5.2454   25.2417 H   0  0  0  0  0  0  0  0  0  0  0  0
    3.9955    4.8403   23.5901 H   0  0  0  0  0  0  0  0  0  0  0  0
    2.0473    4.5325   26.7637 H   0  0  0  0  0  0  0  0  0  0  0  0
    2.5166    2.8066   26.9677 H   0  0  0  0  0  0  0  0  0  0  0  0
    3.7540    4.1025   27.1404 H   0  0  0  0  0  0  0  0  0  0  0  0
    3.7935    0.3333   26.2167 H   0  0  0  0  0  0  0  0  0  0  0  0
    4.6514   -0.4703   27.5682 H   0  0  0  0  0  0  0  0  0  0  0  0
    5.4869   -0.1884   26.0181 H   0  0  0  0  0  0  0  0  0  0  0  0
    7.4436   -0.0759   26.5599 H   0  0  0  0  0  0  0  0  0  0  0  0
    8.5609    0.9485   27.4918 H   0  0  0  0  0  0  0  0  0  0  0  0
    1.6844    2.2675   24.7871 H   0  0  0  0  0  0  0  0  0  0  0  0
    1.1821    3.9684   24.5077 H   0  0  0  0  0  0  0  0  0  0  0  0
    1.5247    2.7720   22.3121 H   0  0  0  0  0  0  0  0  0  0  0  0
    2.7195    4.0767   22.5033 H   0  0  0  0  0  0  0  0  0  0  0  0
    3.8926    2.9969   25.0600 H   0  0  0  0  0  0  0  0  0  0  0  0
  1  3  2  0  0  0  0
  1  9  1  0  0  0  0
  2  4  2  0  0  0  0
  2 11  1  0  0  0  0
  3 14  1  0  0  0  0
  4 15  1  0  0  0  0
  5 10  1  0  0  0  0
  5 14  2  0  0  0  0
  6 12  1  0  0  0  0
  6 15  2  0  0  0  0
  7  9  2  0  0  0  0
  7 31  1  0  0  0  0
  8 13  1  0  0  0  0
  8 31  2  0  0  0  0
  9 10  1  0  0  0  0
 10 13  2  0  0  0  0
 11 12  2  0  0  0  0
 11 17  1  0  0  0  0
 12 23  1  0  0  0  0
 13 32  1  0  0  0  0
 14 38  1  0  0  0  0
 15 41  1  0  0  0  0
 16 23  1  0  0  0  0
 16 32  1  0  0  0  0
 16 35  2  0  0  0  0
 17 33  1  0  0  0  0
 18 19  1  0  0  0  0
 18 24  1  0  0  0  0
 19 24  1  0  0  0  0
 20 21  1  0  0  0  0
 20 23  1  0  0  0  0
 21 32  1  0  0  0  0
 22 23  1  0  0  0  0
 22 33  1  0  0  0  0
 24 28  1  0  0  0  0
 24 39  1  0  0  0  0
 25 34  1  0  0  0  0
 26 34  1  0  0  0  0
 27 39  1  0  0  0  0
 28 40  1  0  0  0  0
 29 30  1  0  0  0  0
 29 34  1  0  0  0  0
 30 38  1  0  0  0  0
 33 40  1  0  0  0  0
 36 40  2  0  0  0  0
 37 40  2  0  0  0  0
  1 42  1  0  0  0  0
  2 43  1  0  0  0  0
  3 44  1  0  0  0  0
  4 45  1  0  0  0  0
  5 46  1  0  0  0  0
  6 47  1  0  0  0  0
  7 48  1  0  0  0  0
  8 49  1  0  0  0  0
 17 50  1  0  0  0  0
 17 51  1  0  0  0  0
 18 52  1  0  0  0  0
 18 53  1  0  0  0  0
 19 54  1  0  0  0  0
 19 55  1  0  0  0  0
 20 56  1  0  0  0  0
 20 57  1  0  0  0  0
 21 58  1  0  0  0  0
 21 59  1  0  0  0  0
 22 60  1  0  0  0  0
 22 61  1  0  0  0  0
 25 62  1  0  0  0  0
 25 63  1  0  0  0  0
 25 64  1  0  0  0  0
 26 65  1  0  0  0  0
 26 66  1  0  0  0  0
 26 67  1  0  0  0  0
 27 68  1  0  0  0  0
 27 69  1  0  0  0  0
 27 70  1  0  0  0  0
 28 71  1  0  0  0  0
 28 72  1  0  0  0  0
 29 73  1  0  0  0  0
 29 74  1  0  0  0  0
 30 75  1  0  0  0  0
 30 76  1  0  0  0  0
 34 77  1  0  0  0  0
M  CHG  1  34   1
M  END
> <scaffold>
tetrahydroisoquinoline-5spiro-isoquinoline

> <compound>
MAT-POS-853c0ffa-10

> <compound_smiles>
CN(C)CCOc1ccc2cncc(c2c1)N3CCC4(C3=O)CN(Cc5c4cc(cc5)Cl)S(=O)(=O)CC6(CC6)OC

> <enantiomer_smiles>
CN(C)CCOc1ccc2cncc(c2c1)N3CC[C@]4(C3=O)C[N@@](Cc5c4cc(cc5)Cl)S(=O)(=O)CC6(CC6)OC

> <clash_score>
0

> <docking_score>
3.4028234663852886e+38

> <overlap_score>
0.973497748374939

> <MMFF_internal_energy>
146.19063068081866

> <docked_smiles>
C[NH+](C)CCOc1ccc2cncc(c2c1)N3CC[C@]4(C3=O)C[N@](Cc5c4cc(cc5)Cl)S(=O)(=O)CC6(CC6)OC

$$$$
EDJ-MED-dfa1d800-5_1
  -OEChem-01042202313D

 73 79  0     1  0  0  0  0  0999 V2000
    3.7877    2.4205   19.1658 C   0  0  0  0  0  0  0  0  0  0  0  0
   12.0781    0.0316   24.1532 C   0  0  0  0  0  0  0  0  0  0  0  0
    3.3444    2.6278   20.4409 C   0  0  0  0  0  0  0  0  0  0  0  0
   12.9147   -0.6032   23.2559 C   0  0  0  0  0  0  0  0  0  0  0  0
    4.8986    1.0232   21.2985 C   0  0  0  0  0  0  0  0  0  0  0  0
   11.0005   -1.4332   22.0435 C   0  0  0  0  0  0  0  0  0  0  0  0
    5.3288    1.2339   17.6062 C   0  0  0  0  0  0  0  0  0  0  0  0
    6.8449   -0.2893   18.3747 C   0  0  0  0  0  0  0  0  0  0  0  0
    4.8238    1.4906   18.9051 C   0  0  0  0  0  0  0  0  0  0  0  0
    5.3995    0.7732   19.9944 C   0  0  0  0  0  0  0  0  0  0  0  0
   10.7056   -0.0626   23.9890 C   0  0  0  0  0  0  0  0  0  0  0  0
   10.1421   -0.7766   22.9242 C   0  0  0  0  0  0  0  0  0  0  0  0
    6.4452   -0.1472   19.6975 C   0  0  0  0  0  0  0  0  0  0  0  0
    3.8974    1.9290   21.5048 C   0  0  0  0  0  0  0  0  0  0  0  0
   12.3697   -1.3298   22.2224 C   0  0  0  0  0  0  0  0  0  0  0  0
    9.9496    0.5589   24.9527 C   0  0  0  0  0  0  0  0  0  0  0  0
    8.2504    0.0168   21.4265 C   0  0  0  0  0  0  0  0  0  0  0  0
    7.2743    2.2339   25.9911 C   0  0  0  0  0  0  0  0  0  0  0  0
    7.6484    3.1063   23.6248 C   0  0  0  0  0  0  0  0  0  0  0  0
    8.8572    3.4809   24.4312 C   0  0  0  0  0  0  0  0  0  0  0  0
    8.0155   -2.1541   22.4325 C   0  0  0  0  0  0  0  0  0  0  0  0
    6.9880   -1.9367   21.3575 C   0  0  0  0  0  0  0  0  0  0  0  0
    7.8737   -0.1194   23.8825 C   0  0  0  0  0  0  0  0  0  0  0  0
    1.2524    0.1176   26.5587 C   0  0  0  0  0  0  0  0  0  0  0  0
    3.3212    0.3062   26.7117 C   0  0  0  0  0  0  0  0  0  0  0  0
    8.6253   -0.7606   22.6923 C   0  0  3  0  0  0  0  0  0  0  0  0
    8.0937    2.2235   24.7641 C   0  0  0  0  0  0  0  0  0  0  0  0
    2.2516   -0.2461   27.6766 C   0  0  0  0  0  0  0  0  0  0  0  0
    7.3837    1.9520   28.4592 C   0  0  0  0  0  0  0  0  0  0  0  0
    2.3427    1.1818   24.6827 C   0  0  0  0  0  0  0  0  0  0  0  0
    3.4842    1.0676   23.6889 C   0  0  0  0  0  0  0  0  0  0  0  0
    6.3072    0.3768   17.3417 N   0  0  0  0  0  0  0  0  0  0  0  0
    7.2305   -0.6898   20.7785 N   0  0  0  0  0  0  0  0  0  0  0  0
    8.6625    1.0133   24.4989 N   0  0  0  0  0  0  0  0  0  0  0  0
    2.3782    0.0491   25.6007 N   0  0  0  0  0  0  0  0  0  0  0  0
    7.9894    1.9860   27.1473 N   0  0  0  0  0  0  0  0  0  0  0  0
   10.3233    0.7301   26.1084 O   0  0  0  0  0  0  0  0  0  0  0  0
    8.8205    1.0412   21.0776 O   0  0  0  0  0  0  0  0  0  0  0  0
    6.0711    2.4522   25.9123 O   0  0  0  0  0  0  0  0  0  0  0  0
    3.4243    2.1582   22.7713 O   0  0  0  0  0  0  0  0  0  0  0  0
    2.1048    0.4164   28.8442 F   0  0  0  0  0  0  0  0  0  0  0  0
    2.3499   -1.5618   27.9737 F   0  0  0  0  0  0  0  0  0  0  0  0
   13.4287   -2.1467   21.1125 Cl  0  0  0  0  0  0  0  0  0  0  0  0
    3.3418    2.9747   18.3367 H   0  0  0  0  0  0  0  0  0  0  0  0
   12.5188    0.5959   24.9712 H   0  0  0  0  0  0  0  0  0  0  0  0
    2.5418    3.3504   20.6305 H   0  0  0  0  0  0  0  0  0  0  0  0
   13.9920   -0.5225   23.3819 H   0  0  0  0  0  0  0  0  0  0  0  0
    5.3175    0.4856   22.1531 H   0  0  0  0  0  0  0  0  0  0  0  0
   10.6143   -2.0253   21.2265 H   0  0  0  0  0  0  0  0  0  0  0  0
    4.9141    1.7513   16.7475 H   0  0  0  0  0  0  0  0  0  0  0  0
    7.6459   -0.9759   18.1036 H   0  0  0  0  0  0  0  0  0  0  0  0
    6.7552    3.7072   23.7499 H   0  0  0  0  0  0  0  0  0  0  0  0
    7.8098    2.7620   22.6100 H   0  0  0  0  0  0  0  0  0  0  0  0
    9.8268    3.3863   23.9564 H   0  0  0  0  0  0  0  0  0  0  0  0
    8.7731    4.3325   25.0962 H   0  0  0  0  0  0  0  0  0  0  0  0
    7.5125   -2.5270   23.3387 H   0  0  0  0  0  0  0  0  0  0  0  0
    8.7589   -2.9107   22.1432 H   0  0  0  0  0  0  0  0  0  0  0  0
    7.0600   -2.7259   20.5720 H   0  0  0  0  0  0  0  0  0  0  0  0
    5.9527   -1.9961   21.7709 H   0  0  0  0  0  0  0  0  0  0  0  0
    6.9276    0.3247   23.5633 H   0  0  0  0  0  0  0  0  0  0  0  0
    7.6527   -0.8545   24.6567 H   0  0  0  0  0  0  0  0  0  0  0  0
    0.4708   -0.6274   26.3770 H   0  0  0  0  0  0  0  0  0  0  0  0
    0.7771    1.0975   26.6988 H   0  0  0  0  0  0  0  0  0  0  0  0
    3.5869    1.3537   26.9065 H   0  0  0  0  0  0  0  0  0  0  0  0
    4.2422   -0.2833   26.6559 H   0  0  0  0  0  0  0  0  0  0  0  0
    7.4071    2.9593   28.9006 H   0  0  0  0  0  0  0  0  0  0  0  0
    6.3405    1.6140   28.3726 H   0  0  0  0  0  0  0  0  0  0  0  0
    7.9423    1.2567   29.1029 H   0  0  0  0  0  0  0  0  0  0  0  0
    2.4188    2.1021   25.2705 H   0  0  0  0  0  0  0  0  0  0  0  0
    1.3809    1.1682   24.1612 H   0  0  0  0  0  0  0  0  0  0  0  0
    3.3915    0.1393   23.1168 H   0  0  0  0  0  0  0  0  0  0  0  0
    4.4574    1.0824   24.1903 H   0  0  0  0  0  0  0  0  0  0  0  0
    8.9884    1.8197   27.0716 H   0  0  0  0  0  0  0  0  0  0  0  0
  1  3  2  0  0  0  0
  1  9  1  0  0  0  0
  2  4  2  0  0  0  0
  2 11  1  0  0  0  0
  3 14  1  0  0  0  0
  4 15  1  0  0  0  0
  5 10  1  0  0  0  0
  5 14  2  0  0  0  0
  6 12  1  0  0  0  0
  6 15  2  0  0  0  0
  7  9  2  0  0  0  0
  7 32  1  0  0  0  0
  8 13  1  0  0  0  0
  8 32  2  0  0  0  0
  9 10  1  0  0  0  0
 10 13  2  0  0  0  0
 11 12  2  0  0  0  0
 11 16  1  0  0  0  0
 12 26  1  0  0  0  0
 13 33  1  0  0  0  0
 14 40  1  0  0  0  0
 15 43  1  0  0  0  0
 16 34  1  0  0  0  0
 16 37  2  0  0  0  0
 17 26  1  0  0  0  0
 17 33  1  0  0  0  0
 17 38  2  0  0  0  0
 18 27  1  0  0  0  0
 18 36  1  0  0  0  0
 18 39  2  0  0  0  0
 19 20  1  0  0  0  0
 19 27  1  0  0  0  0
 20 27  1  0  0  0  0
 21 22  1  0  0  0  0
 21 26  1  0  0  0  0
 22 33  1  0  0  0  0
 23 26  1  0  0  0  0
 23 34  1  0  0  0  0
 24 28  1  0  0  0  0
 24 35  1  0  0  0  0
 25 28  1  0  0  0  0
 25 35  1  0  0  0  0
 27 34  1  0  0  0  0
 28 41  1  0  0  0  0
 28 42  1  0  0  0  0
 29 36  1  0  0  0  0
 30 31  1  0  0  0  0
 30 35  1  0  0  0  0
 31 40  1  0  0  0  0
  1 44  1  0  0  0  0
  2 45  1  0  0  0  0
  3 46  1  0  0  0  0
  4 47  1  0  0  0  0
  5 48  1  0  0  0  0
  6 49  1  0  0  0  0
  7 50  1  0  0  0  0
  8 51  1  0  0  0  0
 19 52  1  0  0  0  0
 19 53  1  0  0  0  0
 20 54  1  0  0  0  0
 20 55  1  0  0  0  0
 21 56  1  0  0  0  0
 21 57  1  0  0  0  0
 22 58  1  0  0  0  0
 22 59  1  0  0  0  0
 23 60  1  0  0  0  0
 23 61  1  0  0  0  0
 24 62  1  0  0  0  0
 24 63  1  0  0  0  0
 25 64  1  0  0  0  0
 25 65  1  0  0  0  0
 29 66  1  0  0  0  0
 29 67  1  0  0  0  0
 29 68  1  0  0  0  0
 30 69  1  0  0  0  0
 30 70  1  0  0  0  0
 31 71  1  0  0  0  0
 31 72  1  0  0  0  0
 36 73  1  0  0  0  0
M  END
> <scaffold>
tetrahydroisoquinoline-5spiro-isoquinoline

> <compound>
EDJ-MED-dfa1d800-5

> <compound_smiles>
CNC(=O)C1(CC1)N2CC3(CCN(C3=O)c4cncc5c4cc(cc5)OCCN6CC(C6)(F)F)c7cc(ccc7C2=O)Cl

> <enantiomer_smiles>
CNC(=O)C1(CC1)N2C[C@]3(CCN(C3=O)c4cncc5c4cc(cc5)OCCN6CC(C6)(F)F)c7cc(ccc7C2=O)Cl

> <clash_score>
0

> <docking_score>
3.4028234663852886e+38

> <overlap_score>
0.9855989217758179

> <MMFF_internal_energy>
206.43151206253657

> <docked_smiles>
CNC(=O)C1(CC1)N2C[C@]3(CCN(C3=O)c4cncc5c4cc(cc5)OCCN6CC(C6)(F)F)c7cc(ccc7C2=O)Cl

$$$$
MAT-POS-40ad851a-4_1
  -OEChem-01042202313D

 77 82  0     1  0  0  0  0  0999 V2000
    5.8586    3.9412   26.7874 C   0  0  0  0  0  0  0  0  0  0  0  0
    3.7877    2.4205   19.1658 C   0  0  0  0  0  0  0  0  0  0  0  0
   12.0781    0.0316   24.1532 C   0  0  0  0  0  0  0  0  0  0  0  0
    3.3444    2.6278   20.4409 C   0  0  0  0  0  0  0  0  0  0  0  0
   12.9147   -0.6032   23.2559 C   0  0  0  0  0  0  0  0  0  0  0  0
    4.8986    1.0232   21.2985 C   0  0  0  0  0  0  0  0  0  0  0  0
   11.0005   -1.4332   22.0435 C   0  0  0  0  0  0  0  0  0  0  0  0
    5.3288    1.2339   17.6062 C   0  0  0  0  0  0  0  0  0  0  0  0
    6.8449   -0.2893   18.3747 C   0  0  0  0  0  0  0  0  0  0  0  0
    4.8238    1.4906   18.9051 C   0  0  0  0  0  0  0  0  0  0  0  0
    5.3995    0.7732   19.9944 C   0  0  0  0  0  0  0  0  0  0  0  0
   10.7056   -0.0626   23.9890 C   0  0  0  0  0  0  0  0  0  0  0  0
   10.1421   -0.7766   22.9242 C   0  0  0  0  0  0  0  0  0  0  0  0
    6.4452   -0.1472   19.6975 C   0  0  0  0  0  0  0  0  0  0  0  0
    3.8974    1.9290   21.5048 C   0  0  0  0  0  0  0  0  0  0  0  0
   12.3697   -1.3298   22.2224 C   0  0  0  0  0  0  0  0  0  0  0  0
    8.2504    0.0168   21.4265 C   0  0  0  0  0  0  0  0  0  0  0  0
    9.9496    0.5589   24.9527 C   0  0  0  0  0  0  0  0  0  0  0  0
    7.6892    3.3067   28.4005 C   0  0  0  0  0  0  0  0  0  0  0  0
    6.4580    2.5494   28.8020 C   0  0  0  0  0  0  0  0  0  0  0  0
    8.0155   -2.1541   22.4325 C   0  0  0  0  0  0  0  0  0  0  0  0
    6.9880   -1.9367   21.3575 C   0  0  0  0  0  0  0  0  0  0  0  0
    7.8737   -0.1194   23.8825 C   0  0  0  0  0  0  0  0  0  0  0  0
    6.6816    2.9011   27.3482 C   0  0  0  0  0  0  0  0  0  0  0  0
    8.6253   -0.7606   22.6923 C   0  0  3  0  0  0  0  0  0  0  0  0
    1.1854    1.4407   27.3248 C   0  0  0  0  0  0  0  0  0  0  0  0
    1.3264    3.9233   27.1921 C   0  0  0  0  0  0  0  0  0  0  0  0
    7.0560    1.7877   26.3958 C   0  0  0  0  0  0  0  0  0  0  0  0
    2.3468    1.2208   24.6992 C   0  0  0  0  0  0  0  0  0  0  0  0
    2.4647    2.5186   25.4799 C   0  0  0  0  0  0  0  0  0  0  0  0
    3.4807    1.0726   23.6950 C   0  0  0  0  0  0  0  0  0  0  0  0
    5.1955    4.7792   26.3354 N   0  0  0  0  0  0  0  0  0  0  0  0
    6.3072    0.3768   17.3417 N   0  0  0  0  0  0  0  0  0  0  0  0
    7.2305   -0.6898   20.7785 N   0  0  0  0  0  0  0  0  0  0  0  0
    8.6625    1.0133   24.4989 N   0  0  3  0  0  0  0  0  0  0  0  0
    1.3145    2.6332   26.4084 N   0  3  0  0  0  0  0  0  0  0  0  0
    8.7514    1.0901   21.1243 O   0  0  0  0  0  0  0  0  0  0  0  0
    6.9865    2.7904   23.9840 O   0  0  0  0  0  0  0  0  0  0  0  0
    8.9572    3.3243   25.4729 O   0  0  0  0  0  0  0  0  0  0  0  0
    3.4243    2.1582   22.7713 O   0  0  0  0  0  0  0  0  0  0  0  0
    7.9493    2.4047   24.9925 S   0  0  0  0  0  0  0  0  0  0  0  0
   13.4297   -2.1462   21.1126 Cl  0  0  0  0  0  0  0  0  0  0  0  0
    3.3418    2.9747   18.3367 H   0  0  0  0  0  0  0  0  0  0  0  0
   12.5046    0.5852   24.9818 H   0  0  0  0  0  0  0  0  0  0  0  0
    2.5418    3.3504   20.6305 H   0  0  0  0  0  0  0  0  0  0  0  0
   13.9930   -0.5302   23.3869 H   0  0  0  0  0  0  0  0  0  0  0  0
    5.3175    0.4856   22.1531 H   0  0  0  0  0  0  0  0  0  0  0  0
   10.6139   -2.0326   21.2341 H   0  0  0  0  0  0  0  0  0  0  0  0
    4.9141    1.7513   16.7475 H   0  0  0  0  0  0  0  0  0  0  0  0
    7.6459   -0.9759   18.1036 H   0  0  0  0  0  0  0  0  0  0  0  0
    9.7590   -0.1307   25.8193 H   0  0  0  0  0  0  0  0  0  0  0  0
   10.4971    1.4368   25.3930 H   0  0  0  0  0  0  0  0  0  0  0  0
    7.7546    4.3491   28.6913 H   0  0  0  0  0  0  0  0  0  0  0  0
    8.6371    2.7826   28.4397 H   0  0  0  0  0  0  0  0  0  0  0  0
    6.5815    1.5179   29.1113 H   0  0  0  0  0  0  0  0  0  0  0  0
    5.7002    3.0851   29.3624 H   0  0  0  0  0  0  0  0  0  0  0  0
    7.5139   -2.5724   23.3172 H   0  0  0  0  0  0  0  0  0  0  0  0
    8.7710   -2.8991   22.1377 H   0  0  0  0  0  0  0  0  0  0  0  0
    7.0576   -2.7256   20.5712 H   0  0  0  0  0  0  0  0  0  0  0  0
    5.9526   -1.9955   21.7714 H   0  0  0  0  0  0  0  0  0  0  0  0
    6.8959    0.2848   23.5662 H   0  0  0  0  0  0  0  0  0  0  0  0
    7.6721   -0.8632   24.6716 H   0  0  0  0  0  0  0  0  0  0  0  0
    2.0863    1.3927   27.9392 H   0  0  0  0  0  0  0  0  0  0  0  0
    0.2969    1.5879   27.9416 H   0  0  0  0  0  0  0  0  0  0  0  0
    1.0875    0.5496   26.7018 H   0  0  0  0  0  0  0  0  0  0  0  0
    2.2306    3.9343   27.8034 H   0  0  0  0  0  0  0  0  0  0  0  0
    1.3255    4.7484   26.4774 H   0  0  0  0  0  0  0  0  0  0  0  0
    0.4307    3.9434   27.8160 H   0  0  0  0  0  0  0  0  0  0  0  0
    6.1643    1.2830   26.0138 H   0  0  0  0  0  0  0  0  0  0  0  0
    7.6970    1.0509   26.8876 H   0  0  0  0  0  0  0  0  0  0  0  0
    1.3858    1.1762   24.1708 H   0  0  0  0  0  0  0  0  0  0  0  0
    2.3508    0.3605   25.3806 H   0  0  0  0  0  0  0  0  0  0  0  0
    2.4332    3.3949   24.8258 H   0  0  0  0  0  0  0  0  0  0  0  0
    3.3709    2.5478   26.0921 H   0  0  0  0  0  0  0  0  0  0  0  0
    3.3882    0.1354   23.1371 H   0  0  0  0  0  0  0  0  0  0  0  0
    4.4528    1.0936   24.1979 H   0  0  0  0  0  0  0  0  0  0  0  0
    0.4493    2.6520   25.8412 H   0  0  0  0  0  0  0  0  0  0  0  0
  1 24  1  0  0  0  0
  1 32  3  0  0  0  0
  2  4  2  0  0  0  0
  2 10  1  0  0  0  0
  3  5  2  0  0  0  0
  3 12  1  0  0  0  0
  4 15  1  0  0  0  0
  5 16  1  0  0  0  0
  6 11  1  0  0  0  0
  6 15  2  0  0  0  0
  7 13  1  0  0  0  0
  7 16  2  0  0  0  0
  8 10  2  0  0  0  0
  8 33  1  0  0  0  0
  9 14  1  0  0  0  0
  9 33  2  0  0  0  0
 10 11  1  0  0  0  0
 11 14  2  0  0  0  0
 12 13  2  0  0  0  0
 12 18  1  0  0  0  0
 13 25  1  0  0  0  0
 14 34  1  0  0  0  0
 15 40  1  0  0  0  0
 16 42  1  0  0  0  0
 17 25  1  0  0  0  0
 17 34  1  0  0  0  0
 17 37  2  0  0  0  0
 18 35  1  0  0  0  0
 19 20  1  0  0  0  0
 19 24  1  0  0  0  0
 20 24  1  0  0  0  0
 21 22  1  0  0  0  0
 21 25  1  0  0  0  0
 22 34  1  0  0  0  0
 23 25  1  0  0  0  0
 23 35  1  0  0  0  0
 24 28  1  0  0  0  0
 26 36  1  0  0  0  0
 27 36  1  0  0  0  0
 28 41  1  0  0  0  0
 29 30  1  0  0  0  0
 29 31  1  0  0  0  0
 30 36  1  0  0  0  0
 31 40  1  0  0  0  0
 35 41  1  0  0  0  0
 38 41  2  0  0  0  0
 39 41  2  0  0  0  0
  2 43  1  0  0  0  0
  3 44  1  0  0  0  0
  4 45  1  0  0  0  0
  5 46  1  0  0  0  0
  6 47  1  0  0  0  0
  7 48  1  0  0  0  0
  8 49  1  0  0  0  0
  9 50  1  0  0  0  0
 18 51  1  0  0  0  0
 18 52  1  0  0  0  0
 19 53  1  0  0  0  0
 19 54  1  0  0  0  0
 20 55  1  0  0  0  0
 20 56  1  0  0  0  0
 21 57  1  0  0  0  0
 21 58  1  0  0  0  0
 22 59  1  0  0  0  0
 22 60  1  0  0  0  0
 23 61  1  0  0  0  0
 23 62  1  0  0  0  0
 26 63  1  0  0  0  0
 26 64  1  0  0  0  0
 26 65  1  0  0  0  0
 27 66  1  0  0  0  0
 27 67  1  0  0  0  0
 27 68  1  0  0  0  0
 28 69  1  0  0  0  0
 28 70  1  0  0  0  0
 29 71  1  0  0  0  0
 29 72  1  0  0  0  0
 30 73  1  0  0  0  0
 30 74  1  0  0  0  0
 31 75  1  0  0  0  0
 31 76  1  0  0  0  0
 36 77  1  0  0  0  0
M  CHG  1  36   1
M  END
> <scaffold>
tetrahydroisoquinoline-5spiro-isoquinoline

> <compound>
MAT-POS-40ad851a-4

> <compound_smiles>
CN(C)CCCOc1ccc2cncc(c2c1)N3CCC4(C3=O)CN(Cc5c4cc(cc5)Cl)S(=O)(=O)CC6(CC6)C#N

> <enantiomer_smiles>
CN(C)CCCOc1ccc2cncc(c2c1)N3CC[C@]4(C3=O)C[N@](Cc5c4cc(cc5)Cl)S(=O)(=O)CC6(CC6)C#N

> <clash_score>
0

> <docking_score>
3.4028234663852886e+38

> <overlap_score>
0.9726645946502686

> <MMFF_internal_energy>
128.15309070262668

> <docked_smiles>
C[NH+](C)CCCOc1ccc2cncc(c2c1)N3CC[C@]4(C3=O)C[N@@](Cc5c4cc(cc5)Cl)S(=O)(=O)CC6(CC6)C#N

$$$$
LUO-POS-8484f2d3-1_1
  -OEChem-01042202313D

 74 79  0     1  0  0  0  0  0999 V2000
    5.2967    3.5514   26.2583 C   0  0  0  0  0  0  0  0  0  0  0  0
    3.7877    2.4205   19.1658 C   0  0  0  0  0  0  0  0  0  0  0  0
   12.0781    0.0316   24.1532 C   0  0  0  0  0  0  0  0  0  0  0  0
    3.3444    2.6278   20.4409 C   0  0  0  0  0  0  0  0  0  0  0  0
   12.9147   -0.6032   23.2559 C   0  0  0  0  0  0  0  0  0  0  0  0
    4.8986    1.0232   21.2985 C   0  0  0  0  0  0  0  0  0  0  0  0
   11.0005   -1.4332   22.0435 C   0  0  0  0  0  0  0  0  0  0  0  0
    5.3288    1.2339   17.6062 C   0  0  0  0  0  0  0  0  0  0  0  0
    6.8449   -0.2893   18.3747 C   0  0  0  0  0  0  0  0  0  0  0  0
    4.8238    1.4906   18.9051 C   0  0  0  0  0  0  0  0  0  0  0  0
    5.3995    0.7732   19.9944 C   0  0  0  0  0  0  0  0  0  0  0  0
   10.7056   -0.0626   23.9890 C   0  0  0  0  0  0  0  0  0  0  0  0
   10.1421   -0.7766   22.9242 C   0  0  0  0  0  0  0  0  0  0  0  0
    6.4452   -0.1472   19.6975 C   0  0  0  0  0  0  0  0  0  0  0  0
    3.8974    1.9290   21.5048 C   0  0  0  0  0  0  0  0  0  0  0  0
   12.3697   -1.3298   22.2224 C   0  0  0  0  0  0  0  0  0  0  0  0
    8.2504    0.0168   21.4265 C   0  0  0  0  0  0  0  0  0  0  0  0
    9.9496    0.5589   24.9527 C   0  0  0  0  0  0  0  0  0  0  0  0
    6.9792    3.7161   28.1285 C   0  0  0  0  0  0  0  0  0  0  0  0
    5.9429    2.7153   28.5471 C   0  0  0  0  0  0  0  0  0  0  0  0
    8.0155   -2.1541   22.4325 C   0  0  0  0  0  0  0  0  0  0  0  0
    6.9880   -1.9367   21.3575 C   0  0  0  0  0  0  0  0  0  0  0  0
    7.8737   -0.1194   23.8825 C   0  0  0  0  0  0  0  0  0  0  0  0
    6.2729    2.8850   27.0810 C   0  0  0  0  0  0  0  0  0  0  0  0
    8.6253   -0.7606   22.6923 C   0  0  2  0  0  0  0  0  0  0  0  0
    0.9133   -0.1136   23.1434 C   0  0  0  0  0  0  0  0  0  0  0  0
   -0.1290    1.3039   24.9055 C   0  0  0  0  0  0  0  0  0  0  0  0
    7.0560    1.7877   26.3958 C   0  0  0  0  0  0  0  0  0  0  0  0
    2.3501    1.1994   24.6970 C   0  0  0  0  0  0  0  0  0  0  0  0
    3.4807    1.0726   23.6950 C   0  0  0  0  0  0  0  0  0  0  0  0
    4.5102    4.0883   25.5954 N   0  0  0  0  0  0  0  0  0  0  0  0
    6.3072    0.3768   17.3417 N   0  0  0  0  0  0  0  0  0  0  0  0
    7.2305   -0.6898   20.7785 N   0  0  0  0  0  0  0  0  0  0  0  0
    8.6625    1.0133   24.4989 N   0  0  3  0  0  0  0  0  0  0  0  0
    1.0511    1.1336   23.9811 N   0  3  0  0  0  0  0  0  0  0  0  0
    8.7514    1.0901   21.1243 O   0  0  0  0  0  0  0  0  0  0  0  0
    6.9865    2.7904   23.9840 O   0  0  0  0  0  0  0  0  0  0  0  0
    8.9572    3.3243   25.4729 O   0  0  0  0  0  0  0  0  0  0  0  0
    3.4243    2.1582   22.7713 O   0  0  0  0  0  0  0  0  0  0  0  0
    7.9493    2.4047   24.9925 S   0  0  0  0  0  0  0  0  0  0  0  0
   13.4297   -2.1462   21.1126 Cl  0  0  0  0  0  0  0  0  0  0  0  0
    3.3418    2.9747   18.3367 H   0  0  0  0  0  0  0  0  0  0  0  0
   12.5046    0.5852   24.9818 H   0  0  0  0  0  0  0  0  0  0  0  0
    2.5418    3.3504   20.6305 H   0  0  0  0  0  0  0  0  0  0  0  0
   13.9930   -0.5302   23.3869 H   0  0  0  0  0  0  0  0  0  0  0  0
    5.3175    0.4856   22.1531 H   0  0  0  0  0  0  0  0  0  0  0  0
   10.6139   -2.0326   21.2341 H   0  0  0  0  0  0  0  0  0  0  0  0
    4.9141    1.7513   16.7475 H   0  0  0  0  0  0  0  0  0  0  0  0
    7.6459   -0.9759   18.1036 H   0  0  0  0  0  0  0  0  0  0  0  0
    9.7590   -0.1307   25.8193 H   0  0  0  0  0  0  0  0  0  0  0  0
   10.4971    1.4368   25.3930 H   0  0  0  0  0  0  0  0  0  0  0  0
    6.7291    4.7669   28.2222 H   0  0  0  0  0  0  0  0  0  0  0  0
    8.0151    3.4923   28.3559 H   0  0  0  0  0  0  0  0  0  0  0  0
    6.2848    1.8214   29.0559 H   0  0  0  0  0  0  0  0  0  0  0  0
    4.9999    3.0968   28.9218 H   0  0  0  0  0  0  0  0  0  0  0  0
    7.5139   -2.5724   23.3172 H   0  0  0  0  0  0  0  0  0  0  0  0
    8.7710   -2.8991   22.1377 H   0  0  0  0  0  0  0  0  0  0  0  0
    7.0576   -2.7256   20.5712 H   0  0  0  0  0  0  0  0  0  0  0  0
    5.9526   -1.9955   21.7714 H   0  0  0  0  0  0  0  0  0  0  0  0
    6.8959    0.2848   23.5662 H   0  0  0  0  0  0  0  0  0  0  0  0
    7.6721   -0.8632   24.6716 H   0  0  0  0  0  0  0  0  0  0  0  0
    0.9485   -0.9728   23.8156 H   0  0  0  0  0  0  0  0  0  0  0  0
   -0.0444   -0.0618   22.6220 H   0  0  0  0  0  0  0  0  0  0  0  0
    1.7447   -0.1345   22.4361 H   0  0  0  0  0  0  0  0  0  0  0  0
   -0.1175    0.4767   25.6175 H   0  0  0  0  0  0  0  0  0  0  0  0
   -0.0183    2.2627   25.4156 H   0  0  0  0  0  0  0  0  0  0  0  0
   -1.0353    1.2853   24.2971 H   0  0  0  0  0  0  0  0  0  0  0  0
    6.3903    0.9996   26.0331 H   0  0  0  0  0  0  0  0  0  0  0  0
    7.7894    1.3466   27.0764 H   0  0  0  0  0  0  0  0  0  0  0  0
    2.3668    2.1611   25.2176 H   0  0  0  0  0  0  0  0  0  0  0  0
    2.3536    0.3768   25.4169 H   0  0  0  0  0  0  0  0  0  0  0  0
    4.4435    1.1200   24.2132 H   0  0  0  0  0  0  0  0  0  0  0  0
    3.4258    0.1302   23.1404 H   0  0  0  0  0  0  0  0  0  0  0  0
    1.0146    1.9282   23.3202 H   0  0  0  0  0  0  0  0  0  0  0  0
  1 24  1  0  0  0  0
  1 31  3  0  0  0  0
  2  4  2  0  0  0  0
  2 10  1  0  0  0  0
  3  5  2  0  0  0  0
  3 12  1  0  0  0  0
  4 15  1  0  0  0  0
  5 16  1  0  0  0  0
  6 11  1  0  0  0  0
  6 15  2  0  0  0  0
  7 13  1  0  0  0  0
  7 16  2  0  0  0  0
  8 10  2  0  0  0  0
  8 32  1  0  0  0  0
  9 14  1  0  0  0  0
  9 32  2  0  0  0  0
 10 11  1  0  0  0  0
 11 14  2  0  0  0  0
 12 13  2  0  0  0  0
 12 18  1  0  0  0  0
 13 25  1  1  0  0  0
 14 33  1  0  0  0  0
 15 39  1  0  0  0  0
 16 41  1  0  0  0  0
 17 25  1  6  0  0  0
 17 33  1  0  0  0  0
 17 36  2  0  0  0  0
 18 34  1  0  0  0  0
 19 20  1  0  0  0  0
 19 24  1  0  0  0  0
 20 24  1  0  0  0  0
 21 22  1  0  0  0  0
 21 25  1  6  0  0  0
 22 33  1  0  0  0  0
 23 25  1  1  0  0  0
 23 34  1  0  0  0  0
 24 28  1  0  0  0  0
 26 35  1  0  0  0  0
 27 35  1  0  0  0  0
 28 40  1  0  0  0  0
 29 30  1  0  0  0  0
 29 35  1  0  0  0  0
 30 39  1  0  0  0  0
 34 40  1  0  0  0  0
 37 40  2  0  0  0  0
 38 40  2  0  0  0  0
  2 42  1  0  0  0  0
  3 43  1  0  0  0  0
  4 44  1  0  0  0  0
  5 45  1  0  0  0  0
  6 46  1  0  0  0  0
  7 47  1  0  0  0  0
  8 48  1  0  0  0  0
  9 49  1  0  0  0  0
 18 50  1  0  0  0  0
 18 51  1  0  0  0  0
 19 52  1  0  0  0  0
 19 53  1  0  0  0  0
 20 54  1  0  0  0  0
 20 55  1  0  0  0  0
 21 56  1  0  0  0  0
 21 57  1  0  0  0  0
 22 58  1  0  0  0  0
 22 59  1  0  0  0  0
 23 60  1  0  0  0  0
 23 61  1  0  0  0  0
 26 62  1  0  0  0  0
 26 63  1  0  0  0  0
 26 64  1  0  0  0  0
 27 65  1  0  0  0  0
 27 66  1  0  0  0  0
 27 67  1  0  0  0  0
 28 68  1  0  0  0  0
 28 69  1  0  0  0  0
 29 70  1  0  0  0  0
 29 71  1  0  0  0  0
 30 72  1  0  0  0  0
 30 73  1  0  0  0  0
 35 74  1  0  0  0  0
M  CHG  1  35   1
M  END
> <scaffold>
tetrahydroisoquinoline-5spiro-isoquinoline

> <compound>
LUO-POS-8484f2d3-1

> <compound_smiles>
CN(C)CCOc1ccc2cncc(c2c1)N3CC[C@]4(C3=O)CN(Cc5c4cc(cc5)Cl)S(=O)(=O)CC6(CC6)C#N

> <enantiomer_smiles>
CN(C)CCOc1ccc2cncc(c2c1)N3CC[C@]4(C3=O)C[N@@](Cc5c4cc(cc5)Cl)S(=O)(=O)CC6(CC6)C#N

> <clash_score>
0

> <docking_score>
3.4028234663852886e+38

> <overlap_score>
0.9741045236587524

> <MMFF_internal_energy>
149.1402508036753

> <docked_smiles>
C[NH+](C)CCOc1ccc2cncc(c2c1)N3CC[C@]4(C3=O)C[N@@](Cc5c4cc(cc5)Cl)S(=O)(=O)CC6(CC6)C#N

$$$$
EDJ-MED-ee81482e-2_1
  -OEChem-01042202313D

 72 78  0     1  0  0  0  0  0999 V2000
    7.1824    5.4364   24.4858 C   0  0  0  0  0  0  0  0  0  0  0  0
    3.7877    2.4205   19.1658 C   0  0  0  0  0  0  0  0  0  0  0  0
   12.0781    0.0316   24.1532 C   0  0  0  0  0  0  0  0  0  0  0  0
    3.3444    2.6278   20.4409 C   0  0  0  0  0  0  0  0  0  0  0  0
   12.9147   -0.6032   23.2559 C   0  0  0  0  0  0  0  0  0  0  0  0
    4.8986    1.0232   21.2985 C   0  0  0  0  0  0  0  0  0  0  0  0
   11.0005   -1.4332   22.0435 C   0  0  0  0  0  0  0  0  0  0  0  0
    5.3288    1.2339   17.6062 C   0  0  0  0  0  0  0  0  0  0  0  0
    6.8449   -0.2893   18.3747 C   0  0  0  0  0  0  0  0  0  0  0  0
    4.8238    1.4906   18.9051 C   0  0  0  0  0  0  0  0  0  0  0  0
    5.3995    0.7732   19.9944 C   0  0  0  0  0  0  0  0  0  0  0  0
   10.7056   -0.0626   23.9890 C   0  0  0  0  0  0  0  0  0  0  0  0
   10.1421   -0.7766   22.9242 C   0  0  0  0  0  0  0  0  0  0  0  0
    6.4452   -0.1472   19.6975 C   0  0  0  0  0  0  0  0  0  0  0  0
    3.8974    1.9290   21.5048 C   0  0  0  0  0  0  0  0  0  0  0  0
   12.3697   -1.3298   22.2224 C   0  0  0  0  0  0  0  0  0  0  0  0
    8.2504    0.0168   21.4265 C   0  0  0  0  0  0  0  0  0  0  0  0
    9.9496    0.5589   24.9527 C   0  0  0  0  0  0  0  0  0  0  0  0
    9.5034    5.9347   23.6370 C   0  0  0  0  0  0  0  0  0  0  0  0
    9.6352    5.4950   25.0653 C   0  0  0  0  0  0  0  0  0  0  0  0
    8.0155   -2.1541   22.4325 C   0  0  0  0  0  0  0  0  0  0  0  0
    6.9880   -1.9367   21.3575 C   0  0  0  0  0  0  0  0  0  0  0  0
    7.8737   -0.1194   23.8825 C   0  0  0  0  0  0  0  0  0  0  0  0
    3.4353    3.6566   24.8090 C   0  0  0  0  0  0  0  0  0  0  0  0
    2.2545    4.3485   23.2312 C   0  0  0  0  0  0  0  0  0  0  0  0
    3.5349    3.4967   23.2815 C   0  0  0  0  0  0  0  0  0  0  0  0
    8.5104    4.9505   24.2134 C   0  0  0  0  0  0  0  0  0  0  0  0
    8.6253   -0.7606   22.6923 C   0  0  3  0  0  0  0  0  0  0  0  0
    1.4066    4.8542   25.4704 C   0  0  0  0  0  0  0  0  0  0  0  0
    8.5925    3.5095   23.7621 C   0  0  0  0  0  0  0  0  0  0  0  0
    6.1125    5.8279   24.7051 N   0  0  0  0  0  0  0  0  0  0  0  0
    6.3072    0.3768   17.3417 N   0  0  0  0  0  0  0  0  0  0  0  0
    7.2305   -0.6898   20.7785 N   0  0  0  0  0  0  0  0  0  0  0  0
    8.6625    1.0133   24.4989 N   0  0  3  0  0  0  0  0  0  0  0  0
    2.5881    4.8416   24.5804 N   0  3  0  0  0  0  0  0  0  0  0  0
    8.7514    1.0901   21.1243 O   0  0  0  0  0  0  0  0  0  0  0  0
    8.5270    2.7701   26.2673 O   0  0  0  0  0  0  0  0  0  0  0  0
    6.5180    2.3109   24.8050 O   0  0  0  0  0  0  0  0  0  0  0  0
    3.4243    2.1582   22.7713 O   0  0  0  0  0  0  0  0  0  0  0  0
    7.9493    2.4047   24.9925 S   0  0  0  0  0  0  0  0  0  0  0  0
   13.4297   -2.1462   21.1126 Cl  0  0  0  0  0  0  0  0  0  0  0  0
    3.3418    2.9747   18.3367 H   0  0  0  0  0  0  0  0  0  0  0  0
   12.5046    0.5852   24.9818 H   0  0  0  0  0  0  0  0  0  0  0  0
    2.5418    3.3504   20.6305 H   0  0  0  0  0  0  0  0  0  0  0  0
   13.9930   -0.5302   23.3869 H   0  0  0  0  0  0  0  0  0  0  0  0
    5.3175    0.4856   22.1531 H   0  0  0  0  0  0  0  0  0  0  0  0
   10.6139   -2.0326   21.2341 H   0  0  0  0  0  0  0  0  0  0  0  0
    4.9141    1.7513   16.7475 H   0  0  0  0  0  0  0  0  0  0  0  0
    7.6459   -0.9759   18.1036 H   0  0  0  0  0  0  0  0  0  0  0  0
    9.7590   -0.1307   25.8193 H   0  0  0  0  0  0  0  0  0  0  0  0
   10.4971    1.4368   25.3930 H   0  0  0  0  0  0  0  0  0  0  0  0
    9.1859    6.9549   23.4530 H   0  0  0  0  0  0  0  0  0  0  0  0
   10.2406    5.5729   22.9295 H   0  0  0  0  0  0  0  0  0  0  0  0
   10.4615    4.8392   25.3146 H   0  0  0  0  0  0  0  0  0  0  0  0
    9.4067    6.2215   25.8368 H   0  0  0  0  0  0  0  0  0  0  0  0
    7.5139   -2.5724   23.3172 H   0  0  0  0  0  0  0  0  0  0  0  0
    8.7710   -2.8991   22.1377 H   0  0  0  0  0  0  0  0  0  0  0  0
    7.0576   -2.7256   20.5712 H   0  0  0  0  0  0  0  0  0  0  0  0
    5.9526   -1.9955   21.7714 H   0  0  0  0  0  0  0  0  0  0  0  0
    6.8959    0.2848   23.5662 H   0  0  0  0  0  0  0  0  0  0  0  0
    7.6721   -0.8632   24.6716 H   0  0  0  0  0  0  0  0  0  0  0  0
    2.9409    2.8252   25.3239 H   0  0  0  0  0  0  0  0  0  0  0  0
    4.3746    3.8929   25.3165 H   0  0  0  0  0  0  0  0  0  0  0  0
    2.2486    5.1386   22.4754 H   0  0  0  0  0  0  0  0  0  0  0  0
    1.3250    3.7719   23.1644 H   0  0  0  0  0  0  0  0  0  0  0  0
    4.4071    4.0018   22.8499 H   0  0  0  0  0  0  0  0  0  0  0  0
    0.9261    3.8766   25.4014 H   0  0  0  0  0  0  0  0  0  0  0  0
    1.7555    5.0494   26.4862 H   0  0  0  0  0  0  0  0  0  0  0  0
    0.7376    5.6454   25.1264 H   0  0  0  0  0  0  0  0  0  0  0  0
    9.6293    3.2161   23.5759 H   0  0  0  0  0  0  0  0  0  0  0  0
    8.0102    3.3511   22.8504 H   0  0  0  0  0  0  0  0  0  0  0  0
    3.1119    5.7275   24.5768 H   0  0  0  0  0  0  0  0  0  0  0  0
  1 27  1  0  0  0  0
  1 31  3  0  0  0  0
  2  4  2  0  0  0  0
  2 10  1  0  0  0  0
  3  5  2  0  0  0  0
  3 12  1  0  0  0  0
  4 15  1  0  0  0  0
  5 16  1  0  0  0  0
  6 11  1  0  0  0  0
  6 15  2  0  0  0  0
  7 13  1  0  0  0  0
  7 16  2  0  0  0  0
  8 10  2  0  0  0  0
  8 32  1  0  0  0  0
  9 14  1  0  0  0  0
  9 32  2  0  0  0  0
 10 11  1  0  0  0  0
 11 14  2  0  0  0  0
 12 13  2  0  0  0  0
 12 18  1  0  0  0  0
 13 28  1  0  0  0  0
 14 33  1  0  0  0  0
 15 39  1  0  0  0  0
 16 41  1  0  0  0  0
 17 28  1  0  0  0  0
 17 33  1  0  0  0  0
 17 36  2  0  0  0  0
 18 34  1  0  0  0  0
 19 20  1  0  0  0  0
 19 27  1  0  0  0  0
 20 27  1  0  0  0  0
 21 22  1  0  0  0  0
 21 28  1  0  0  0  0
 22 33  1  0  0  0  0
 23 28  1  0  0  0  0
 23 34  1  0  0  0  0
 24 26  1  0  0  0  0
 24 35  1  0  0  0  0
 25 26  1  0  0  0  0
 25 35  1  0  0  0  0
 26 39  1  0  0  0  0
 27 30  1  0  0  0  0
 29 35  1  0  0  0  0
 30 40  1  0  0  0  0
 34 40  1  0  0  0  0
 37 40  2  0  0  0  0
 38 40  2  0  0  0  0
  2 42  1  0  0  0  0
  3 43  1  0  0  0  0
  4 44  1  0  0  0  0
  5 45  1  0  0  0  0
  6 46  1  0  0  0  0
  7 47  1  0  0  0  0
  8 48  1  0  0  0  0
  9 49  1  0  0  0  0
 18 50  1  0  0  0  0
 18 51  1  0  0  0  0
 19 52  1  0  0  0  0
 19 53  1  0  0  0  0
 20 54  1  0  0  0  0
 20 55  1  0  0  0  0
 21 56  1  0  0  0  0
 21 57  1  0  0  0  0
 22 58  1  0  0  0  0
 22 59  1  0  0  0  0
 23 60  1  0  0  0  0
 23 61  1  0  0  0  0
 24 62  1  0  0  0  0
 24 63  1  0  0  0  0
 25 64  1  0  0  0  0
 25 65  1  0  0  0  0
 26 66  1  0  0  0  0
 29 67  1  0  0  0  0
 29 68  1  0  0  0  0
 29 69  1  0  0  0  0
 30 70  1  0  0  0  0
 30 71  1  0  0  0  0
 35 72  1  0  0  0  0
M  CHG  1  35   1
M  END
> <scaffold>
tetrahydroisoquinoline-5spiro-isoquinoline

> <compound>
EDJ-MED-ee81482e-2

> <compound_smiles>
CN1CC(C1)Oc2ccc3cncc(c3c2)N4CCC5(C4=O)CN(Cc6c5cc(cc6)Cl)S(=O)(=O)CC7(CC7)C#N

> <enantiomer_smiles>
CN1CC(C1)Oc2ccc3cncc(c3c2)N4CC[C@]5(C4=O)C[N@](Cc6c5cc(cc6)Cl)S(=O)(=O)CC7(CC7)C#N

> <clash_score>
0

> <docking_score>
3.4028234663852886e+38

> <overlap_score>
0.9732072353363037

> <MMFF_internal_energy>
125.06883949949827

> <docked_smiles>
C[NH+]1CC(C1)Oc2ccc3cncc(c3c2)N4CC[C@]5(C4=O)C[N@@](Cc6c5cc(cc6)Cl)S(=O)(=O)CC7(CC7)C#N

$$$$
EDJ-MED-9f4ac58c-3_1
  -OEChem-01042202313D

 65 70  0     1  0  0  0  0  0999 V2000
    5.1577    3.4061   26.1564 C   0  0  0  0  0  0  0  0  0  0  0  0
    4.8986    1.0232   21.2985 C   0  0  0  0  0  0  0  0  0  0  0  0
   12.0781    0.0316   24.1532 C   0  0  0  0  0  0  0  0  0  0  0  0
    3.8974    1.9290   21.5048 C   0  0  0  0  0  0  0  0  0  0  0  0
   12.9147   -0.6032   23.2559 C   0  0  0  0  0  0  0  0  0  0  0  0
    3.7877    2.4205   19.1658 C   0  0  0  0  0  0  0  0  0  0  0  0
   11.0005   -1.4332   22.0435 C   0  0  0  0  0  0  0  0  0  0  0  0
    5.3288    1.2339   17.6062 C   0  0  0  0  0  0  0  0  0  0  0  0
    6.8449   -0.2893   18.3747 C   0  0  0  0  0  0  0  0  0  0  0  0
    5.3995    0.7732   19.9944 C   0  0  0  0  0  0  0  0  0  0  0  0
    4.8238    1.4906   18.9051 C   0  0  0  0  0  0  0  0  0  0  0  0
   10.7056   -0.0626   23.9890 C   0  0  0  0  0  0  0  0  0  0  0  0
   10.1421   -0.7766   22.9242 C   0  0  0  0  0  0  0  0  0  0  0  0
    6.4452   -0.1472   19.6975 C   0  0  0  0  0  0  0  0  0  0  0  0
    3.3444    2.6278   20.4409 C   0  0  0  0  0  0  0  0  0  0  0  0
   12.3697   -1.3298   22.2224 C   0  0  0  0  0  0  0  0  0  0  0  0
    9.9496    0.5589   24.9527 C   0  0  0  0  0  0  0  0  0  0  0  0
    8.2504    0.0168   21.4265 C   0  0  0  0  0  0  0  0  0  0  0  0
    6.7897    3.6529   28.0620 C   0  0  0  0  0  0  0  0  0  0  0  0
    5.7925    2.6056   28.4611 C   0  0  0  0  0  0  0  0  0  0  0  0
    8.0155   -2.1541   22.4325 C   0  0  0  0  0  0  0  0  0  0  0  0
    6.9880   -1.9367   21.3575 C   0  0  0  0  0  0  0  0  0  0  0  0
    7.8737   -0.1194   23.8825 C   0  0  0  0  0  0  0  0  0  0  0  0
    6.1458    2.7877   27.0020 C   0  0  0  0  0  0  0  0  0  0  0  0
    8.6253   -0.7606   22.6923 C   0  0  3  0  0  0  0  0  0  0  0  0
    3.5024    5.5502   22.0590 C   0  0  0  0  0  0  0  0  0  0  0  0
    6.9941    1.7268   26.3371 C   0  0  0  0  0  0  0  0  0  0  0  0
    4.3615    3.9042   25.4751 N   0  0  0  0  0  0  0  0  0  0  0  0
    6.3072    0.3768   17.3417 N   0  0  0  0  0  0  0  0  0  0  0  0
    7.2305   -0.6898   20.7785 N   0  0  0  0  0  0  0  0  0  0  0  0
    8.6625    1.0133   24.4989 N   0  0  0  0  0  0  0  0  0  0  0  0
    2.2947    3.5766   20.6954 N   0  0  0  0  0  0  0  0  0  0  0  0
   10.3166    0.7434   26.1217 O   0  0  0  0  0  0  0  0  0  0  0  0
    8.8196    1.0408   21.0766 O   0  0  0  0  0  0  0  0  0  0  0  0
    3.6478    5.3958   19.4662 O   0  0  0  0  0  0  0  0  0  0  0  0
    1.4511    6.0478   20.5122 O   0  0  0  0  0  0  0  0  0  0  0  0
    6.9311    2.7494   23.9334 O   0  0  0  0  0  0  0  0  0  0  0  0
    8.8702    3.3156   25.4517 O   0  0  0  0  0  0  0  0  0  0  0  0
    2.6614    5.2502   20.5204 S   0  0  0  0  0  0  0  0  0  0  0  0
    7.8873    2.3819   24.9522 S   0  0  0  0  0  0  0  0  0  0  0  0
   13.4293   -2.1466   21.1128 Cl  0  0  0  0  0  0  0  0  0  0  0  0
    5.3129    0.4891   22.1565 H   0  0  0  0  0  0  0  0  0  0  0  0
   12.5191    0.5957   24.9706 H   0  0  0  0  0  0  0  0  0  0  0  0
    3.5264    2.1066   22.5215 H   0  0  0  0  0  0  0  0  0  0  0  0
   13.9921   -0.5215   23.3809 H   0  0  0  0  0  0  0  0  0  0  0  0
    3.3490    2.9700   18.3283 H   0  0  0  0  0  0  0  0  0  0  0  0
   10.6170   -2.0260   21.2272 H   0  0  0  0  0  0  0  0  0  0  0  0
    4.9144    1.7516   16.7476 H   0  0  0  0  0  0  0  0  0  0  0  0
    7.6459   -0.9758   18.1038 H   0  0  0  0  0  0  0  0  0  0  0  0
    6.4888    4.6911   28.1472 H   0  0  0  0  0  0  0  0  0  0  0  0
    7.8297    3.4783   28.3124 H   0  0  0  0  0  0  0  0  0  0  0  0
    6.1646    1.7296   28.9798 H   0  0  0  0  0  0  0  0  0  0  0  0
    4.8247    2.9433   28.8143 H   0  0  0  0  0  0  0  0  0  0  0  0
    7.5124   -2.5282   23.3379 H   0  0  0  0  0  0  0  0  0  0  0  0
    8.7585   -2.9105   22.1421 H   0  0  0  0  0  0  0  0  0  0  0  0
    7.0610   -2.7257   20.5719 H   0  0  0  0  0  0  0  0  0  0  0  0
    5.9524   -1.9968   21.7699 H   0  0  0  0  0  0  0  0  0  0  0  0
    6.8990    0.2933   23.5632 H   0  0  0  0  0  0  0  0  0  0  0  0
    7.6456   -0.8834   24.6465 H   0  0  0  0  0  0  0  0  0  0  0  0
    3.8013    6.5992   22.0892 H   0  0  0  0  0  0  0  0  0  0  0  0
    2.8158    5.3245   22.8763 H   0  0  0  0  0  0  0  0  0  0  0  0
    4.3783    4.9014   22.1047 H   0  0  0  0  0  0  0  0  0  0  0  0
    6.3739    0.9078   25.9624 H   0  0  0  0  0  0  0  0  0  0  0  0
    7.7323    1.3219   27.0346 H   0  0  0  0  0  0  0  0  0  0  0  0
    1.7017    3.3493   21.5108 H   0  0  0  0  0  0  0  0  0  0  0  0
  1 24  1  0  0  0  0
  1 28  3  0  0  0  0
  2  4  2  0  0  0  0
  2 10  1  0  0  0  0
  3  5  2  0  0  0  0
  3 12  1  0  0  0  0
  4 15  1  0  0  0  0
  5 16  1  0  0  0  0
  6 11  1  0  0  0  0
  6 15  2  0  0  0  0
  7 13  1  0  0  0  0
  7 16  2  0  0  0  0
  8 11  2  0  0  0  0
  8 29  1  0  0  0  0
  9 14  1  0  0  0  0
  9 29  2  0  0  0  0
 10 11  1  0  0  0  0
 10 14  2  0  0  0  0
 12 13  2  0  0  0  0
 12 17  1  0  0  0  0
 13 25  1  0  0  0  0
 14 30  1  0  0  0  0
 15 32  1  0  0  0  0
 16 41  1  0  0  0  0
 17 31  1  0  0  0  0
 17 33  2  0  0  0  0
 18 25  1  0  0  0  0
 18 30  1  0  0  0  0
 18 34  2  0  0  0  0
 19 20  1  0  0  0  0
 19 24  1  0  0  0  0
 20 24  1  0  0  0  0
 21 22  1  0  0  0  0
 21 25  1  0  0  0  0
 22 30  1  0  0  0  0
 23 25  1  0  0  0  0
 23 31  1  0  0  0  0
 24 27  1  0  0  0  0
 26 39  1  0  0  0  0
 27 40  1  0  0  0  0
 31 40  1  0  0  0  0
 32 39  1  0  0  0  0
 35 39  2  0  0  0  0
 36 39  2  0  0  0  0
 37 40  2  0  0  0  0
 38 40  2  0  0  0  0
  2 42  1  0  0  0  0
  3 43  1  0  0  0  0
  4 44  1  0  0  0  0
  5 45  1  0  0  0  0
  6 46  1  0  0  0  0
  7 47  1  0  0  0  0
  8 48  1  0  0  0  0
  9 49  1  0  0  0  0
 19 50  1  0  0  0  0
 19 51  1  0  0  0  0
 20 52  1  0  0  0  0
 20 53  1  0  0  0  0
 21 54  1  0  0  0  0
 21 55  1  0  0  0  0
 22 56  1  0  0  0  0
 22 57  1  0  0  0  0
 23 58  1  0  0  0  0
 23 59  1  0  0  0  0
 26 60  1  0  0  0  0
 26 61  1  0  0  0  0
 26 62  1  0  0  0  0
 27 63  1  0  0  0  0
 27 64  1  0  0  0  0
 32 65  1  0  0  0  0
M  END
> <scaffold>
tetrahydroisoquinoline-5spiro-isoquinoline

> <compound>
EDJ-MED-9f4ac58c-3

> <compound_smiles>
CS(=O)(=O)Nc1ccc2c(c1)cncc2N3CCC4(C3=O)CN(C(=O)c5c4cc(cc5)Cl)S(=O)(=O)CC6(CC6)C#N

> <enantiomer_smiles>
CS(=O)(=O)Nc1ccc2c(c1)cncc2N3CC[C@@]4(C3=O)CN(C(=O)c5c4cc(cc5)Cl)S(=O)(=O)CC6(CC6)C#N

> <clash_score>
0.7164742793240535

> <docking_score>
3.4028234663852886e+38

> <overlap_score>
0.9855080246925354

> <MMFF_internal_energy>
35.45038091063005

> <docked_smiles>
CS(=O)(=O)Nc1ccc2c(c1)cncc2N3CC[C@@]4(C3=O)CN(C(=O)c5c4cc(cc5)Cl)S(=O)(=O)CC6(CC6)C#N

$$$$
MAT-POS-40ad851a-2_1
  -OEChem-01042202313D

 77 82  0     1  0  0  0  0  0999 V2000
    5.8186    4.5756   24.1075 C   0  0  0  0  0  0  0  0  0  0  0  0
    3.7877    2.4205   19.1658 C   0  0  0  0  0  0  0  0  0  0  0  0
   12.0781    0.0316   24.1532 C   0  0  0  0  0  0  0  0  0  0  0  0
    3.3444    2.6278   20.4409 C   0  0  0  0  0  0  0  0  0  0  0  0
   12.9147   -0.6032   23.2559 C   0  0  0  0  0  0  0  0  0  0  0  0
    4.8986    1.0232   21.2985 C   0  0  0  0  0  0  0  0  0  0  0  0
   11.0005   -1.4332   22.0435 C   0  0  0  0  0  0  0  0  0  0  0  0
    5.3288    1.2339   17.6062 C   0  0  0  0  0  0  0  0  0  0  0  0
    6.8449   -0.2893   18.3747 C   0  0  0  0  0  0  0  0  0  0  0  0
    4.8238    1.4906   18.9051 C   0  0  0  0  0  0  0  0  0  0  0  0
    5.3995    0.7732   19.9944 C   0  0  0  0  0  0  0  0  0  0  0  0
   10.7056   -0.0626   23.9890 C   0  0  0  0  0  0  0  0  0  0  0  0
   10.1421   -0.7766   22.9242 C   0  0  0  0  0  0  0  0  0  0  0  0
    6.4452   -0.1472   19.6975 C   0  0  0  0  0  0  0  0  0  0  0  0
    3.8974    1.9290   21.5048 C   0  0  0  0  0  0  0  0  0  0  0  0
   12.3697   -1.3298   22.2224 C   0  0  0  0  0  0  0  0  0  0  0  0
    8.2504    0.0168   21.4265 C   0  0  0  0  0  0  0  0  0  0  0  0
    9.9496    0.5589   24.9527 C   0  0  0  0  0  0  0  0  0  0  0  0
    7.4786    5.6381   22.5354 C   0  0  0  0  0  0  0  0  0  0  0  0
    8.0374    5.7581   23.9225 C   0  0  0  0  0  0  0  0  0  0  0  0
    8.0155   -2.1541   22.4325 C   0  0  0  0  0  0  0  0  0  0  0  0
    6.9880   -1.9367   21.3575 C   0  0  0  0  0  0  0  0  0  0  0  0
    7.8737   -0.1194   23.8825 C   0  0  0  0  0  0  0  0  0  0  0  0
    7.1540    4.5826   23.5686 C   0  0  0  0  0  0  0  0  0  0  0  0
    8.6253   -0.7606   22.6923 C   0  0  3  0  0  0  0  0  0  0  0  0
    0.8221    1.7062   27.0761 C   0  0  0  0  0  0  0  0  0  0  0  0
    1.8356    4.0865   25.6094 C   0  0  0  0  0  0  0  0  0  0  0  0
    7.8012    3.2233   23.4253 C   0  0  0  0  0  0  0  0  0  0  0  0
    2.2485    1.8342   26.5878 C   0  0  0  0  0  0  0  0  0  0  0  0
    1.5083    2.0460   24.2197 C   0  0  0  0  0  0  0  0  0  0  0  0
    2.0565    2.5435   22.8967 C   0  0  0  0  0  0  0  0  0  0  0  0
    4.7426    4.5700   24.5416 N   0  0  0  0  0  0  0  0  0  0  0  0
    6.3072    0.3768   17.3417 N   0  0  0  0  0  0  0  0  0  0  0  0
    7.2305   -0.6898   20.7785 N   0  0  0  0  0  0  0  0  0  0  0  0
    8.6625    1.0133   24.4989 N   0  0  3  0  0  0  0  0  0  0  0  0
    2.2705    2.6689   25.3312 N   0  3  3  0  0  0  0  0  0  0  0  0
    8.7514    1.0901   21.1243 O   0  0  0  0  0  0  0  0  0  0  0  0
    8.9098    3.1357   25.7898 O   0  0  0  0  0  0  0  0  0  0  0  0
    6.6159    2.1226   25.4774 O   0  0  0  0  0  0  0  0  0  0  0  0
    3.4243    2.1582   22.7713 O   0  0  0  0  0  0  0  0  0  0  0  0
    7.9493    2.4047   24.9925 S   0  0  0  0  0  0  0  0  0  0  0  0
   13.4297   -2.1462   21.1126 Cl  0  0  0  0  0  0  0  0  0  0  0  0
    3.3418    2.9747   18.3367 H   0  0  0  0  0  0  0  0  0  0  0  0
   12.5046    0.5852   24.9818 H   0  0  0  0  0  0  0  0  0  0  0  0
    2.5418    3.3504   20.6305 H   0  0  0  0  0  0  0  0  0  0  0  0
   13.9930   -0.5302   23.3869 H   0  0  0  0  0  0  0  0  0  0  0  0
    5.3175    0.4856   22.1531 H   0  0  0  0  0  0  0  0  0  0  0  0
   10.6139   -2.0326   21.2341 H   0  0  0  0  0  0  0  0  0  0  0  0
    4.9141    1.7513   16.7475 H   0  0  0  0  0  0  0  0  0  0  0  0
    7.6459   -0.9759   18.1036 H   0  0  0  0  0  0  0  0  0  0  0  0
    9.7590   -0.1307   25.8193 H   0  0  0  0  0  0  0  0  0  0  0  0
   10.4971    1.4368   25.3930 H   0  0  0  0  0  0  0  0  0  0  0  0
    6.7072    6.3414   22.2423 H   0  0  0  0  0  0  0  0  0  0  0  0
    8.1664    5.3869   21.7363 H   0  0  0  0  0  0  0  0  0  0  0  0
    9.1000    5.5881   24.0522 H   0  0  0  0  0  0  0  0  0  0  0  0
    7.6404    6.5424   24.5570 H   0  0  0  0  0  0  0  0  0  0  0  0
    7.5139   -2.5724   23.3172 H   0  0  0  0  0  0  0  0  0  0  0  0
    8.7710   -2.8991   22.1377 H   0  0  0  0  0  0  0  0  0  0  0  0
    7.0576   -2.7256   20.5712 H   0  0  0  0  0  0  0  0  0  0  0  0
    5.9526   -1.9955   21.7714 H   0  0  0  0  0  0  0  0  0  0  0  0
    6.8959    0.2848   23.5662 H   0  0  0  0  0  0  0  0  0  0  0  0
    7.6721   -0.8632   24.6716 H   0  0  0  0  0  0  0  0  0  0  0  0
    0.4168    2.6925   27.3219 H   0  0  0  0  0  0  0  0  0  0  0  0
    0.1804    1.2579   26.3104 H   0  0  0  0  0  0  0  0  0  0  0  0
    0.7657    1.0834   27.9750 H   0  0  0  0  0  0  0  0  0  0  0  0
    0.7892    4.0601   25.9186 H   0  0  0  0  0  0  0  0  0  0  0  0
    2.4704    4.4806   26.4053 H   0  0  0  0  0  0  0  0  0  0  0  0
    1.9585    4.6603   24.6889 H   0  0  0  0  0  0  0  0  0  0  0  0
    8.8095    3.3116   23.0113 H   0  0  0  0  0  0  0  0  0  0  0  0
    7.2074    2.5735   22.7768 H   0  0  0  0  0  0  0  0  0  0  0  0
    2.6783    0.8611   26.3347 H   0  0  0  0  0  0  0  0  0  0  0  0
    2.8828    2.3402   27.3208 H   0  0  0  0  0  0  0  0  0  0  0  0
    1.6252    0.9646   24.3338 H   0  0  0  0  0  0  0  0  0  0  0  0
    0.4624    2.3324   24.3575 H   0  0  0  0  0  0  0  0  0  0  0  0
    1.5008    2.0897   22.0701 H   0  0  0  0  0  0  0  0  0  0  0  0
    1.9844    3.6327   22.8130 H   0  0  0  0  0  0  0  0  0  0  0  0
    3.2617    2.7247   25.0416 H   0  0  0  0  0  0  0  0  0  0  0  0
  1 24  1  0  0  0  0
  1 32  3  0  0  0  0
  2  4  2  0  0  0  0
  2 10  1  0  0  0  0
  3  5  2  0  0  0  0
  3 12  1  0  0  0  0
  4 15  1  0  0  0  0
  5 16  1  0  0  0  0
  6 11  1  0  0  0  0
  6 15  2  0  0  0  0
  7 13  1  0  0  0  0
  7 16  2  0  0  0  0
  8 10  2  0  0  0  0
  8 33  1  0  0  0  0
  9 14  1  0  0  0  0
  9 33  2  0  0  0  0
 10 11  1  0  0  0  0
 11 14  2  0  0  0  0
 12 13  2  0  0  0  0
 12 18  1  0  0  0  0
 13 25  1  0  0  0  0
 14 34  1  0  0  0  0
 15 40  1  0  0  0  0
 16 42  1  0  0  0  0
 17 25  1  0  0  0  0
 17 34  1  0  0  0  0
 17 37  2  0  0  0  0
 18 35  1  0  0  0  0
 19 20  1  0  0  0  0
 19 24  1  0  0  0  0
 20 24  1  0  0  0  0
 21 22  1  0  0  0  0
 21 25  1  0  0  0  0
 22 34  1  0  0  0  0
 23 25  1  0  0  0  0
 23 35  1  0  0  0  0
 24 28  1  0  0  0  0
 26 29  1  0  0  0  0
 27 36  1  0  0  0  0
 28 41  1  0  0  0  0
 29 36  1  0  0  0  0
 30 31  1  0  0  0  0
 30 36  1  0  0  0  0
 31 40  1  0  0  0  0
 35 41  1  0  0  0  0
 38 41  2  0  0  0  0
 39 41  2  0  0  0  0
  2 43  1  0  0  0  0
  3 44  1  0  0  0  0
  4 45  1  0  0  0  0
  5 46  1  0  0  0  0
  6 47  1  0  0  0  0
  7 48  1  0  0  0  0
  8 49  1  0  0  0  0
  9 50  1  0  0  0  0
 18 51  1  0  0  0  0
 18 52  1  0  0  0  0
 19 53  1  0  0  0  0
 19 54  1  0  0  0  0
 20 55  1  0  0  0  0
 20 56  1  0  0  0  0
 21 57  1  0  0  0  0
 21 58  1  0  0  0  0
 22 59  1  0  0  0  0
 22 60  1  0  0  0  0
 23 61  1  0  0  0  0
 23 62  1  0  0  0  0
 26 63  1  0  0  0  0
 26 64  1  0  0  0  0
 26 65  1  0  0  0  0
 27 66  1  0  0  0  0
 27 67  1  0  0  0  0
 27 68  1  0  0  0  0
 28 69  1  0  0  0  0
 28 70  1  0  0  0  0
 29 71  1  0  0  0  0
 29 72  1  0  0  0  0
 30 73  1  0  0  0  0
 30 74  1  0  0  0  0
 31 75  1  0  0  0  0
 31 76  1  0  0  0  0
 36 77  1  0  0  0  0
M  CHG  1  36   1
M  END
> <scaffold>
tetrahydroisoquinoline-5spiro-isoquinoline

> <compound>
MAT-POS-40ad851a-2

> <compound_smiles>
CCN(C)CCOc1ccc2cncc(c2c1)N3CCC4(C3=O)CN(Cc5c4cc(cc5)Cl)S(=O)(=O)CC6(CC6)C#N

> <enantiomer_smiles>
CC[N@@](C)CCOc1ccc2cncc(c2c1)N3CC[C@]4(C3=O)C[N@@](Cc5c4cc(cc5)Cl)S(=O)(=O)CC6(CC6)C#N

> <clash_score>
0

> <docking_score>
3.4028234663852886e+38

> <overlap_score>
0.9726428985595703

> <MMFF_internal_energy>
120.92387299376814

> <docked_smiles>
CC[N@H+](C)CCOc1ccc2cncc(c2c1)N3CC[C@]4(C3=O)C[N@@](Cc5c4cc(cc5)Cl)S(=O)(=O)CC6(CC6)C#N

$$$$
EDJ-MED-468565e0-2_1
  -OEChem-01042202313D

 79 85  0     1  0  0  0  0  0999 V2000
    5.2967    3.5514   26.2583 C   0  0  0  0  0  0  0  0  0  0  0  0
    3.7877    2.4205   19.1658 C   0  0  0  0  0  0  0  0  0  0  0  0
   12.0781    0.0316   24.1532 C   0  0  0  0  0  0  0  0  0  0  0  0
    3.3444    2.6278   20.4409 C   0  0  0  0  0  0  0  0  0  0  0  0
   12.9147   -0.6032   23.2559 C   0  0  0  0  0  0  0  0  0  0  0  0
    4.8986    1.0232   21.2985 C   0  0  0  0  0  0  0  0  0  0  0  0
   11.0005   -1.4332   22.0435 C   0  0  0  0  0  0  0  0  0  0  0  0
    5.3288    1.2339   17.6062 C   0  0  0  0  0  0  0  0  0  0  0  0
    6.8449   -0.2893   18.3747 C   0  0  0  0  0  0  0  0  0  0  0  0
    4.8238    1.4906   18.9051 C   0  0  0  0  0  0  0  0  0  0  0  0
    5.3995    0.7732   19.9944 C   0  0  0  0  0  0  0  0  0  0  0  0
   10.7056   -0.0626   23.9890 C   0  0  0  0  0  0  0  0  0  0  0  0
   10.1421   -0.7766   22.9242 C   0  0  0  0  0  0  0  0  0  0  0  0
    6.4452   -0.1472   19.6975 C   0  0  0  0  0  0  0  0  0  0  0  0
    3.8974    1.9290   21.5048 C   0  0  0  0  0  0  0  0  0  0  0  0
   12.3697   -1.3298   22.2224 C   0  0  0  0  0  0  0  0  0  0  0  0
    8.2504    0.0168   21.4265 C   0  0  0  0  0  0  0  0  0  0  0  0
    9.9496    0.5589   24.9527 C   0  0  0  0  0  0  0  0  0  0  0  0
    6.9792    3.7161   28.1285 C   0  0  0  0  0  0  0  0  0  0  0  0
    5.9429    2.7153   28.5471 C   0  0  0  0  0  0  0  0  0  0  0  0
    8.0155   -2.1541   22.4325 C   0  0  0  0  0  0  0  0  0  0  0  0
    6.9880   -1.9367   21.3575 C   0  0  0  0  0  0  0  0  0  0  0  0
    7.8737   -0.1194   23.8825 C   0  0  0  0  0  0  0  0  0  0  0  0
   -0.0974    1.6926   24.7996 C   0  0  0  0  0  0  0  0  0  0  0  0
    0.7160   -0.2670   23.5035 C   0  0  0  0  0  0  0  0  0  0  0  0
   -1.3685    1.6325   23.9697 C   0  0  0  0  0  0  0  0  0  0  0  0
   -0.5974   -0.2262   22.7409 C   0  0  0  0  0  0  0  0  0  0  0  0
    6.2729    2.8850   27.0810 C   0  0  0  0  0  0  0  0  0  0  0  0
    8.6253   -0.7606   22.6923 C   0  0  3  0  0  0  0  0  0  0  0  0
    7.0560    1.7877   26.3958 C   0  0  0  0  0  0  0  0  0  0  0  0
    2.3501    1.1994   24.6970 C   0  0  0  0  0  0  0  0  0  0  0  0
    3.4807    1.0726   23.6950 C   0  0  0  0  0  0  0  0  0  0  0  0
    4.5102    4.0883   25.5954 N   0  0  0  0  0  0  0  0  0  0  0  0
    6.3072    0.3768   17.3417 N   0  0  0  0  0  0  0  0  0  0  0  0
    7.2305   -0.6898   20.7785 N   0  0  0  0  0  0  0  0  0  0  0  0
    8.6625    1.0133   24.4989 N   0  0  3  0  0  0  0  0  0  0  0  0
    1.0362    1.1329   23.9728 N   0  3  0  0  0  0  0  0  0  0  0  0
    8.7514    1.0901   21.1243 O   0  0  0  0  0  0  0  0  0  0  0  0
    6.9865    2.7904   23.9840 O   0  0  0  0  0  0  0  0  0  0  0  0
    8.9572    3.3243   25.4729 O   0  0  0  0  0  0  0  0  0  0  0  0
   -1.6415    0.2892   23.5682 O   0  0  0  0  0  0  0  0  0  0  0  0
    3.4243    2.1582   22.7713 O   0  0  0  0  0  0  0  0  0  0  0  0
    7.9493    2.4047   24.9925 S   0  0  0  0  0  0  0  0  0  0  0  0
   13.4297   -2.1462   21.1126 Cl  0  0  0  0  0  0  0  0  0  0  0  0
    3.3418    2.9747   18.3367 H   0  0  0  0  0  0  0  0  0  0  0  0
   12.5046    0.5852   24.9818 H   0  0  0  0  0  0  0  0  0  0  0  0
    2.5418    3.3504   20.6305 H   0  0  0  0  0  0  0  0  0  0  0  0
   13.9930   -0.5302   23.3869 H   0  0  0  0  0  0  0  0  0  0  0  0
    5.3175    0.4856   22.1531 H   0  0  0  0  0  0  0  0  0  0  0  0
   10.6139   -2.0326   21.2341 H   0  0  0  0  0  0  0  0  0  0  0  0
    4.9141    1.7513   16.7475 H   0  0  0  0  0  0  0  0  0  0  0  0
    7.6459   -0.9759   18.1036 H   0  0  0  0  0  0  0  0  0  0  0  0
    9.7590   -0.1307   25.8193 H   0  0  0  0  0  0  0  0  0  0  0  0
   10.4971    1.4368   25.3930 H   0  0  0  0  0  0  0  0  0  0  0  0
    6.7291    4.7669   28.2222 H   0  0  0  0  0  0  0  0  0  0  0  0
    8.0151    3.4923   28.3559 H   0  0  0  0  0  0  0  0  0  0  0  0
    6.2848    1.8214   29.0559 H   0  0  0  0  0  0  0  0  0  0  0  0
    4.9999    3.0968   28.9218 H   0  0  0  0  0  0  0  0  0  0  0  0
    7.5139   -2.5724   23.3172 H   0  0  0  0  0  0  0  0  0  0  0  0
    8.7710   -2.8991   22.1377 H   0  0  0  0  0  0  0  0  0  0  0  0
    7.0576   -2.7256   20.5712 H   0  0  0  0  0  0  0  0  0  0  0  0
    5.9526   -1.9955   21.7714 H   0  0  0  0  0  0  0  0  0  0  0  0
    6.8959    0.2848   23.5662 H   0  0  0  0  0  0  0  0  0  0  0  0
    7.6721   -0.8632   24.6716 H   0  0  0  0  0  0  0  0  0  0  0  0
    0.1583    2.7218   25.0617 H   0  0  0  0  0  0  0  0  0  0  0  0
   -0.1744    1.0743   25.6984 H   0  0  0  0  0  0  0  0  0  0  0  0
    0.6438   -0.8946   24.3963 H   0  0  0  0  0  0  0  0  0  0  0  0
    1.5374   -0.5997   22.8648 H   0  0  0  0  0  0  0  0  0  0  0  0
   -2.2170    1.9763   24.5697 H   0  0  0  0  0  0  0  0  0  0  0  0
   -1.3081    2.2784   23.0855 H   0  0  0  0  0  0  0  0  0  0  0  0
   -0.5185    0.3744   21.8269 H   0  0  0  0  0  0  0  0  0  0  0  0
   -0.8824   -1.2404   22.4439 H   0  0  0  0  0  0  0  0  0  0  0  0
    6.3903    0.9996   26.0331 H   0  0  0  0  0  0  0  0  0  0  0  0
    7.7894    1.3466   27.0764 H   0  0  0  0  0  0  0  0  0  0  0  0
    2.3668    2.1611   25.2176 H   0  0  0  0  0  0  0  0  0  0  0  0
    2.3536    0.3768   25.4169 H   0  0  0  0  0  0  0  0  0  0  0  0
    4.4435    1.1200   24.2132 H   0  0  0  0  0  0  0  0  0  0  0  0
    3.4258    0.1302   23.1404 H   0  0  0  0  0  0  0  0  0  0  0  0
    1.1248    1.7245   23.1335 H   0  0  0  0  0  0  0  0  0  0  0  0
  1 28  1  0  0  0  0
  1 33  3  0  0  0  0
  2  4  2  0  0  0  0
  2 10  1  0  0  0  0
  3  5  2  0  0  0  0
  3 12  1  0  0  0  0
  4 15  1  0  0  0  0
  5 16  1  0  0  0  0
  6 11  1  0  0  0  0
  6 15  2  0  0  0  0
  7 13  1  0  0  0  0
  7 16  2  0  0  0  0
  8 10  2  0  0  0  0
  8 34  1  0  0  0  0
  9 14  1  0  0  0  0
  9 34  2  0  0  0  0
 10 11  1  0  0  0  0
 11 14  2  0  0  0  0
 12 13  2  0  0  0  0
 12 18  1  0  0  0  0
 13 29  1  0  0  0  0
 14 35  1  0  0  0  0
 15 42  1  0  0  0  0
 16 44  1  0  0  0  0
 17 29  1  0  0  0  0
 17 35  1  0  0  0  0
 17 38  2  0  0  0  0
 18 36  1  0  0  0  0
 19 20  1  0  0  0  0
 19 28  1  0  0  0  0
 20 28  1  0  0  0  0
 21 22  1  0  0  0  0
 21 29  1  0  0  0  0
 22 35  1  0  0  0  0
 23 29  1  0  0  0  0
 23 36  1  0  0  0  0
 24 26  1  0  0  0  0
 24 37  1  0  0  0  0
 25 27  1  0  0  0  0
 25 37  1  0  0  0  0
 26 41  1  0  0  0  0
 27 41  1  0  0  0  0
 28 30  1  0  0  0  0
 30 43  1  0  0  0  0
 31 32  1  0  0  0  0
 31 37  1  0  0  0  0
 32 42  1  0  0  0  0
 36 43  1  0  0  0  0
 39 43  2  0  0  0  0
 40 43  2  0  0  0  0
  2 45  1  0  0  0  0
  3 46  1  0  0  0  0
  4 47  1  0  0  0  0
  5 48  1  0  0  0  0
  6 49  1  0  0  0  0
  7 50  1  0  0  0  0
  8 51  1  0  0  0  0
  9 52  1  0  0  0  0
 18 53  1  0  0  0  0
 18 54  1  0  0  0  0
 19 55  1  0  0  0  0
 19 56  1  0  0  0  0
 20 57  1  0  0  0  0
 20 58  1  0  0  0  0
 21 59  1  0  0  0  0
 21 60  1  0  0  0  0
 22 61  1  0  0  0  0
 22 62  1  0  0  0  0
 23 63  1  0  0  0  0
 23 64  1  0  0  0  0
 24 65  1  0  0  0  0
 24 66  1  0  0  0  0
 25 67  1  0  0  0  0
 25 68  1  0  0  0  0
 26 69  1  0  0  0  0
 26 70  1  0  0  0  0
 27 71  1  0  0  0  0
 27 72  1  0  0  0  0
 30 73  1  0  0  0  0
 30 74  1  0  0  0  0
 31 75  1  0  0  0  0
 31 76  1  0  0  0  0
 32 77  1  0  0  0  0
 32 78  1  0  0  0  0
 37 79  1  0  0  0  0
M  CHG  1  37   1
M  END
> <scaffold>
tetrahydroisoquinoline-5spiro-isoquinoline

> <compound>
EDJ-MED-468565e0-2

> <compound_smiles>
c1cc2cncc(c2cc1OCCN3CCOCC3)N4CCC5(C4=O)CN(Cc6c5cc(cc6)Cl)S(=O)(=O)CC7(CC7)C#N

> <enantiomer_smiles>
c1cc2cncc(c2cc1OCCN3CCOCC3)N4CC[C@]5(C4=O)C[N@@](Cc6c5cc(cc6)Cl)S(=O)(=O)CC7(CC7)C#N

> <clash_score>
0

> <docking_score>
3.4028234663852886e+38

> <overlap_score>
0.968662679195404

> <MMFF_internal_energy>
212.867494948765

> <docked_smiles>
c1cc2cncc(c2cc1OCC[NH+]3CCOCC3)N4CC[C@]5(C4=O)C[N@@](Cc6c5cc(cc6)Cl)S(=O)(=O)CC7(CC7)C#N

$$$$
MAT-POS-40ad851a-1_2
  -OEChem-01042202313D

 78 84  0     1  0  0  0  0  0999 V2000
    5.8186    4.5756   24.1075 C   0  0  0  0  0  0  0  0  0  0  0  0
    3.7877    2.4205   19.1658 C   0  0  0  0  0  0  0  0  0  0  0  0
   12.0781    0.0316   24.1532 C   0  0  0  0  0  0  0  0  0  0  0  0
    3.3444    2.6278   20.4409 C   0  0  0  0  0  0  0  0  0  0  0  0
   12.9147   -0.6032   23.2559 C   0  0  0  0  0  0  0  0  0  0  0  0
    4.8986    1.0232   21.2985 C   0  0  0  0  0  0  0  0  0  0  0  0
   11.0005   -1.4332   22.0435 C   0  0  0  0  0  0  0  0  0  0  0  0
    5.3288    1.2339   17.6062 C   0  0  0  0  0  0  0  0  0  0  0  0
    6.8449   -0.2893   18.3747 C   0  0  0  0  0  0  0  0  0  0  0  0
    4.8238    1.4906   18.9051 C   0  0  0  0  0  0  0  0  0  0  0  0
    5.3995    0.7732   19.9944 C   0  0  0  0  0  0  0  0  0  0  0  0
   10.7056   -0.0626   23.9890 C   0  0  0  0  0  0  0  0  0  0  0  0
   10.1421   -0.7766   22.9242 C   0  0  0  0  0  0  0  0  0  0  0  0
    6.4452   -0.1472   19.6975 C   0  0  0  0  0  0  0  0  0  0  0  0
    3.8974    1.9290   21.5048 C   0  0  0  0  0  0  0  0  0  0  0  0
   12.3697   -1.3298   22.2224 C   0  0  0  0  0  0  0  0  0  0  0  0
    8.2504    0.0168   21.4265 C   0  0  0  0  0  0  0  0  0  0  0  0
    9.9496    0.5589   24.9527 C   0  0  0  0  0  0  0  0  0  0  0  0
    0.1197    1.9188   25.0951 C   0  0  0  0  0  0  0  0  0  0  0  0
    0.9669    1.2159   24.0543 C   0  0  0  0  0  0  0  0  0  0  0  0
    7.4786    5.6381   22.5354 C   0  0  0  0  0  0  0  0  0  0  0  0
    8.0374    5.7581   23.9225 C   0  0  0  0  0  0  0  0  0  0  0  0
    8.0155   -2.1541   22.4325 C   0  0  0  0  0  0  0  0  0  0  0  0
    6.9880   -1.9367   21.3575 C   0  0  0  0  0  0  0  0  0  0  0  0
    7.8737   -0.1194   23.8825 C   0  0  0  0  0  0  0  0  0  0  0  0
    0.9935    3.0753   25.5419 C   0  0  0  0  0  0  0  0  0  0  0  0
    2.3475    1.2146   24.6945 C   0  0  1  0  0  0  0  0  0  0  0  0
    7.1540    4.5826   23.5686 C   0  0  0  0  0  0  0  0  0  0  0  0
    8.6253   -0.7606   22.6923 C   0  0  3  0  0  0  0  0  0  0  0  0
    3.1934    2.5538   26.6672 C   0  0  0  0  0  0  0  0  0  0  0  0
    3.4807    1.0726   23.6950 C   0  0  0  0  0  0  0  0  0  0  0  0
    7.8012    3.2233   23.4253 C   0  0  0  0  0  0  0  0  0  0  0  0
    4.7426    4.5700   24.5416 N   0  0  0  0  0  0  0  0  0  0  0  0
    6.3072    0.3768   17.3417 N   0  0  0  0  0  0  0  0  0  0  0  0
    7.2305   -0.6898   20.7785 N   0  0  0  0  0  0  0  0  0  0  0  0
    8.6625    1.0133   24.4989 N   0  0  3  0  0  0  0  0  0  0  0  0
    2.4185    2.5704   25.3851 N   0  3  3  0  0  0  0  0  0  0  0  0
    8.7514    1.0901   21.1243 O   0  0  0  0  0  0  0  0  0  0  0  0
    8.9098    3.1357   25.7898 O   0  0  0  0  0  0  0  0  0  0  0  0
    6.6159    2.1226   25.4774 O   0  0  0  0  0  0  0  0  0  0  0  0
    3.4243    2.1582   22.7713 O   0  0  0  0  0  0  0  0  0  0  0  0
    7.9493    2.4047   24.9925 S   0  0  0  0  0  0  0  0  0  0  0  0
   13.4297   -2.1462   21.1126 Cl  0  0  0  0  0  0  0  0  0  0  0  0
    3.3418    2.9747   18.3367 H   0  0  0  0  0  0  0  0  0  0  0  0
   12.5046    0.5852   24.9818 H   0  0  0  0  0  0  0  0  0  0  0  0
    2.5418    3.3504   20.6305 H   0  0  0  0  0  0  0  0  0  0  0  0
   13.9930   -0.5302   23.3869 H   0  0  0  0  0  0  0  0  0  0  0  0
    5.3175    0.4856   22.1531 H   0  0  0  0  0  0  0  0  0  0  0  0
   10.6139   -2.0326   21.2341 H   0  0  0  0  0  0  0  0  0  0  0  0
    4.9141    1.7513   16.7475 H   0  0  0  0  0  0  0  0  0  0  0  0
    7.6459   -0.9759   18.1036 H   0  0  0  0  0  0  0  0  0  0  0  0
    9.7590   -0.1307   25.8193 H   0  0  0  0  0  0  0  0  0  0  0  0
   10.4971    1.4368   25.3930 H   0  0  0  0  0  0  0  0  0  0  0  0
   -0.8376    2.2580   24.6895 H   0  0  0  0  0  0  0  0  0  0  0  0
   -0.0829    1.2479   25.9384 H   0  0  0  0  0  0  0  0  0  0  0  0
    0.6072    0.2027   23.8510 H   0  0  0  0  0  0  0  0  0  0  0  0
    0.9614    1.7781   23.1126 H   0  0  0  0  0  0  0  0  0  0  0  0
    6.7072    6.3414   22.2423 H   0  0  0  0  0  0  0  0  0  0  0  0
    8.1663    5.3869   21.7363 H   0  0  0  0  0  0  0  0  0  0  0  0
    9.1000    5.5881   24.0522 H   0  0  0  0  0  0  0  0  0  0  0  0
    7.6404    6.5424   24.5570 H   0  0  0  0  0  0  0  0  0  0  0  0
    7.5139   -2.5724   23.3172 H   0  0  0  0  0  0  0  0  0  0  0  0
    8.7710   -2.8991   22.1377 H   0  0  0  0  0  0  0  0  0  0  0  0
    7.0576   -2.7256   20.5712 H   0  0  0  0  0  0  0  0  0  0  0  0
    5.9526   -1.9955   21.7714 H   0  0  0  0  0  0  0  0  0  0  0  0
    6.8959    0.2848   23.5662 H   0  0  0  0  0  0  0  0  0  0  0  0
    7.6721   -0.8632   24.6716 H   0  0  0  0  0  0  0  0  0  0  0  0
    0.8966    3.9404   24.8779 H   0  0  0  0  0  0  0  0  0  0  0  0
    0.8134    3.3746   26.5785 H   0  0  0  0  0  0  0  0  0  0  0  0
    2.4077    0.4444   25.4727 H   0  0  0  0  0  0  0  0  0  0  0  0
    2.6973    1.8599   27.3483 H   0  0  0  0  0  0  0  0  0  0  0  0
    4.2085    2.2225   26.4399 H   0  0  0  0  0  0  0  0  0  0  0  0
    3.1927    3.5680   27.0712 H   0  0  0  0  0  0  0  0  0  0  0  0
    3.3885    0.1335   23.1412 H   0  0  0  0  0  0  0  0  0  0  0  0
    4.4481    1.0941   24.2056 H   0  0  0  0  0  0  0  0  0  0  0  0
    8.8095    3.3116   23.0113 H   0  0  0  0  0  0  0  0  0  0  0  0
    7.2074    2.5735   22.7768 H   0  0  0  0  0  0  0  0  0  0  0  0
    2.8968    3.2276   24.7536 H   0  0  0  0  0  0  0  0  0  0  0  0
  1 28  1  0  0  0  0
  1 33  3  0  0  0  0
  2  4  2  0  0  0  0
  2 10  1  0  0  0  0
  3  5  2  0  0  0  0
  3 12  1  0  0  0  0
  4 15  1  0  0  0  0
  5 16  1  0  0  0  0
  6 11  1  0  0  0  0
  6 15  2  0  0  0  0
  7 13  1  0  0  0  0
  7 16  2  0  0  0  0
  8 10  2  0  0  0  0
  8 34  1  0  0  0  0
  9 14  1  0  0  0  0
  9 34  2  0  0  0  0
 10 11  1  0  0  0  0
 11 14  2  0  0  0  0
 12 13  2  0  0  0  0
 12 18  1  0  0  0  0
 13 29  1  0  0  0  0
 14 35  1  0  0  0  0
 15 41  1  0  0  0  0
 16 43  1  0  0  0  0
 17 29  1  0  0  0  0
 17 35  1  0  0  0  0
 17 38  2  0  0  0  0
 18 36  1  0  0  0  0
 19 20  1  0  0  0  0
 19 26  1  0  0  0  0
 20 27  1  0  0  0  0
 21 22  1  0  0  0  0
 21 28  1  0  0  0  0
 22 28  1  0  0  0  0
 23 24  1  0  0  0  0
 23 29  1  0  0  0  0
 24 35  1  0  0  0  0
 25 29  1  0  0  0  0
 25 36  1  0  0  0  0
 26 37  1  0  0  0  0
 27 31  1  6  0  0  0
 27 37  1  0  0  0  0
 28 32  1  0  0  0  0
 30 37  1  0  0  0  0
 31 41  1  0  0  0  0
 32 42  1  0  0  0  0
 36 42  1  0  0  0  0
 39 42  2  0  0  0  0
 40 42  2  0  0  0  0
  2 44  1  0  0  0  0
  3 45  1  0  0  0  0
  4 46  1  0  0  0  0
  5 47  1  0  0  0  0
  6 48  1  0  0  0  0
  7 49  1  0  0  0  0
  8 50  1  0  0  0  0
  9 51  1  0  0  0  0
 18 52  1  0  0  0  0
 18 53  1  0  0  0  0
 19 54  1  0  0  0  0
 19 55  1  0  0  0  0
 20 56  1  0  0  0  0
 20 57  1  0  0  0  0
 21 58  1  0  0  0  0
 21 59  1  0  0  0  0
 22 60  1  0  0  0  0
 22 61  1  0  0  0  0
 23 62  1  0  0  0  0
 23 63  1  0  0  0  0
 24 64  1  0  0  0  0
 24 65  1  0  0  0  0
 25 66  1  0  0  0  0
 25 67  1  0  0  0  0
 26 68  1  0  0  0  0
 26 69  1  0  0  0  0
 27 70  1  0  0  0  0
 30 71  1  0  0  0  0
 30 72  1  0  0  0  0
 30 73  1  0  0  0  0
 31 74  1  0  0  0  0
 31 75  1  0  0  0  0
 32 76  1  0  0  0  0
 32 77  1  0  0  0  0
 37 78  1  0  0  0  0
M  CHG  1  37   1
M  END
> <scaffold>
tetrahydroisoquinoline-5spiro-isoquinoline

> <compound>
MAT-POS-40ad851a-1

> <compound_smiles>
CN1CCCC1COc2ccc3cncc(c3c2)N4CCC5(C4=O)CN(Cc6c5cc(cc6)Cl)S(=O)(=O)CC7(CC7)C#N

> <enantiomer_smiles>
C[N@@]1CCC[C@H]1COc2ccc3cncc(c3c2)N4CC[C@]5(C4=O)C[N@](Cc6c5cc(cc6)Cl)S(=O)(=O)CC7(CC7)C#N

> <clash_score>
0

> <docking_score>
3.4028234663852886e+38

> <overlap_score>
0.9702839255332947

> <MMFF_internal_energy>
120.77554800913606

> <docked_smiles>
C[N@@H+]1CCC[C@H]1COc2ccc3cncc(c3c2)N4CC[C@]5(C4=O)C[N@@](Cc6c5cc(cc6)Cl)S(=O)(=O)CC7(CC7)C#N

$$$$
EDJ-MED-dfa1d800-3_1
  -OEChem-01042202313D

 79 85  0     1  0  0  0  0  0999 V2000
    3.7877    2.4205   19.1658 C   0  0  0  0  0  0  0  0  0  0  0  0
   12.0781    0.0316   24.1532 C   0  0  0  0  0  0  0  0  0  0  0  0
    3.3444    2.6278   20.4409 C   0  0  0  0  0  0  0  0  0  0  0  0
   12.9147   -0.6032   23.2559 C   0  0  0  0  0  0  0  0  0  0  0  0
    4.8986    1.0232   21.2985 C   0  0  0  0  0  0  0  0  0  0  0  0
   11.0005   -1.4332   22.0435 C   0  0  0  0  0  0  0  0  0  0  0  0
    5.3288    1.2339   17.6062 C   0  0  0  0  0  0  0  0  0  0  0  0
    6.8449   -0.2893   18.3747 C   0  0  0  0  0  0  0  0  0  0  0  0
    4.8238    1.4906   18.9051 C   0  0  0  0  0  0  0  0  0  0  0  0
    5.3995    0.7732   19.9944 C   0  0  0  0  0  0  0  0  0  0  0  0
   10.7056   -0.0626   23.9890 C   0  0  0  0  0  0  0  0  0  0  0  0
   10.1421   -0.7766   22.9242 C   0  0  0  0  0  0  0  0  0  0  0  0
    6.4452   -0.1472   19.6975 C   0  0  0  0  0  0  0  0  0  0  0  0
    3.8974    1.9290   21.5048 C   0  0  0  0  0  0  0  0  0  0  0  0
   12.3697   -1.3298   22.2224 C   0  0  0  0  0  0  0  0  0  0  0  0
    9.9496    0.5589   24.9527 C   0  0  0  0  0  0  0  0  0  0  0  0
    8.2504    0.0168   21.4265 C   0  0  0  0  0  0  0  0  0  0  0  0
    7.2743    2.2339   25.9911 C   0  0  0  0  0  0  0  0  0  0  0  0
    7.6484    3.1063   23.6248 C   0  0  0  0  0  0  0  0  0  0  0  0
    8.8572    3.4809   24.4312 C   0  0  0  0  0  0  0  0  0  0  0  0
    8.0155   -2.1541   22.4325 C   0  0  0  0  0  0  0  0  0  0  0  0
    6.9880   -1.9367   21.3575 C   0  0  0  0  0  0  0  0  0  0  0  0
    3.3641    0.2941   26.6707 C   0  0  0  0  0  0  0  0  0  0  0  0
    1.0317   -0.2014   26.1495 C   0  0  0  0  0  0  0  0  0  0  0  0
    7.8737   -0.1194   23.8825 C   0  0  0  0  0  0  0  0  0  0  0  0
    3.5851   -0.9307   27.5503 C   0  0  0  0  0  0  0  0  0  0  0  0
    0.9649   -1.4870   26.9652 C   0  0  0  0  0  0  0  0  0  0  0  0
    8.6253   -0.7606   22.6923 C   0  0  3  0  0  0  0  0  0  0  0  0
    8.0937    2.2235   24.7641 C   0  0  0  0  0  0  0  0  0  0  0  0
    7.3837    1.9520   28.4592 C   0  0  0  0  0  0  0  0  0  0  0  0
    2.3427    1.1818   24.6827 C   0  0  0  0  0  0  0  0  0  0  0  0
    3.4842    1.0676   23.6889 C   0  0  0  0  0  0  0  0  0  0  0  0
    6.3072    0.3768   17.3417 N   0  0  0  0  0  0  0  0  0  0  0  0
    7.2305   -0.6898   20.7785 N   0  0  0  0  0  0  0  0  0  0  0  0
    8.6625    1.0133   24.4989 N   0  0  0  0  0  0  0  0  0  0  0  0
    2.3784    0.0437   25.6051 N   0  0  0  0  0  0  0  0  0  0  0  0
    7.9894    1.9860   27.1473 N   0  0  0  0  0  0  0  0  0  0  0  0
   10.3233    0.7301   26.1084 O   0  0  0  0  0  0  0  0  0  0  0  0
    8.8205    1.0412   21.0776 O   0  0  0  0  0  0  0  0  0  0  0  0
    6.0711    2.4522   25.9123 O   0  0  0  0  0  0  0  0  0  0  0  0
    2.2641   -2.8012   28.8201 O   0  0  0  0  0  0  0  0  0  0  0  0
    1.6573   -0.3886   29.2455 O   0  0  0  0  0  0  0  0  0  0  0  0
    3.4243    2.1582   22.7713 O   0  0  0  0  0  0  0  0  0  0  0  0
    2.0818   -1.4435   28.3463 S   0  0  0  0  0  0  0  0  0  0  0  0
   13.4287   -2.1467   21.1125 Cl  0  0  0  0  0  0  0  0  0  0  0  0
    3.3418    2.9747   18.3367 H   0  0  0  0  0  0  0  0  0  0  0  0
   12.5188    0.5959   24.9712 H   0  0  0  0  0  0  0  0  0  0  0  0
    2.5418    3.3504   20.6305 H   0  0  0  0  0  0  0  0  0  0  0  0
   13.9920   -0.5225   23.3819 H   0  0  0  0  0  0  0  0  0  0  0  0
    5.3175    0.4856   22.1531 H   0  0  0  0  0  0  0  0  0  0  0  0
   10.6143   -2.0253   21.2265 H   0  0  0  0  0  0  0  0  0  0  0  0
    4.9141    1.7513   16.7475 H   0  0  0  0  0  0  0  0  0  0  0  0
    7.6459   -0.9759   18.1036 H   0  0  0  0  0  0  0  0  0  0  0  0
    6.7552    3.7072   23.7499 H   0  0  0  0  0  0  0  0  0  0  0  0
    7.8098    2.7620   22.6100 H   0  0  0  0  0  0  0  0  0  0  0  0
    9.8268    3.3863   23.9564 H   0  0  0  0  0  0  0  0  0  0  0  0
    8.7731    4.3325   25.0962 H   0  0  0  0  0  0  0  0  0  0  0  0
    7.5125   -2.5270   23.3387 H   0  0  0  0  0  0  0  0  0  0  0  0
    8.7589   -2.9107   22.1432 H   0  0  0  0  0  0  0  0  0  0  0  0
    7.0600   -2.7259   20.5720 H   0  0  0  0  0  0  0  0  0  0  0  0
    5.9527   -1.9961   21.7709 H   0  0  0  0  0  0  0  0  0  0  0  0
    3.0598    1.1528   27.2867 H   0  0  0  0  0  0  0  0  0  0  0  0
    4.3333    0.5532   26.2220 H   0  0  0  0  0  0  0  0  0  0  0  0
    0.3134   -0.3010   25.3240 H   0  0  0  0  0  0  0  0  0  0  0  0
    0.6987    0.6519   26.7582 H   0  0  0  0  0  0  0  0  0  0  0  0
    6.9276    0.3247   23.5633 H   0  0  0  0  0  0  0  0  0  0  0  0
    7.6527   -0.8545   24.6567 H   0  0  0  0  0  0  0  0  0  0  0  0
    3.9509   -1.7782   26.9608 H   0  0  0  0  0  0  0  0  0  0  0  0
    4.3136   -0.7178   28.3384 H   0  0  0  0  0  0  0  0  0  0  0  0
   -0.0417   -1.6418   27.3662 H   0  0  0  0  0  0  0  0  0  0  0  0
    1.2314   -2.3558   26.3539 H   0  0  0  0  0  0  0  0  0  0  0  0
    7.4071    2.9593   28.9006 H   0  0  0  0  0  0  0  0  0  0  0  0
    6.3405    1.6140   28.3726 H   0  0  0  0  0  0  0  0  0  0  0  0
    7.9423    1.2567   29.1029 H   0  0  0  0  0  0  0  0  0  0  0  0
    2.4188    2.1021   25.2705 H   0  0  0  0  0  0  0  0  0  0  0  0
    1.3809    1.1683   24.1612 H   0  0  0  0  0  0  0  0  0  0  0  0
    3.3915    0.1393   23.1168 H   0  0  0  0  0  0  0  0  0  0  0  0
    4.4574    1.0824   24.1903 H   0  0  0  0  0  0  0  0  0  0  0  0
    8.9884    1.8197   27.0716 H   0  0  0  0  0  0  0  0  0  0  0  0
  1  3  2  0  0  0  0
  1  9  1  0  0  0  0
  2  4  2  0  0  0  0
  2 11  1  0  0  0  0
  3 14  1  0  0  0  0
  4 15  1  0  0  0  0
  5 10  1  0  0  0  0
  5 14  2  0  0  0  0
  6 12  1  0  0  0  0
  6 15  2  0  0  0  0
  7  9  2  0  0  0  0
  7 33  1  0  0  0  0
  8 13  1  0  0  0  0
  8 33  2  0  0  0  0
  9 10  1  0  0  0  0
 10 13  2  0  0  0  0
 11 12  2  0  0  0  0
 11 16  1  0  0  0  0
 12 28  1  0  0  0  0
 13 34  1  0  0  0  0
 14 43  1  0  0  0  0
 15 45  1  0  0  0  0
 16 35  1  0  0  0  0
 16 38  2  0  0  0  0
 17 28  1  0  0  0  0
 17 34  1  0  0  0  0
 17 39  2  0  0  0  0
 18 29  1  0  0  0  0
 18 37  1  0  0  0  0
 18 40  2  0  0  0  0
 19 20  1  0  0  0  0
 19 29  1  0  0  0  0
 20 29  1  0  0  0  0
 21 22  1  0  0  0  0
 21 28  1  0  0  0  0
 22 34  1  0  0  0  0
 23 26  1  0  0  0  0
 23 36  1  0  0  0  0
 24 27  1  0  0  0  0
 24 36  1  0  0  0  0
 25 28  1  0  0  0  0
 25 35  1  0  0  0  0
 26 44  1  0  0  0  0
 27 44  1  0  0  0  0
 29 35  1  0  0  0  0
 30 37  1  0  0  0  0
 31 32  1  0  0  0  0
 31 36  1  0  0  0  0
 32 43  1  0  0  0  0
 41 44  2  0  0  0  0
 42 44  2  0  0  0  0
  1 46  1  0  0  0  0
  2 47  1  0  0  0  0
  3 48  1  0  0  0  0
  4 49  1  0  0  0  0
  5 50  1  0  0  0  0
  6 51  1  0  0  0  0
  7 52  1  0  0  0  0
  8 53  1  0  0  0  0
 19 54  1  0  0  0  0
 19 55  1  0  0  0  0
 20 56  1  0  0  0  0
 20 57  1  0  0  0  0
 21 58  1  0  0  0  0
 21 59  1  0  0  0  0
 22 60  1  0  0  0  0
 22 61  1  0  0  0  0
 23 62  1  0  0  0  0
 23 63  1  0  0  0  0
 24 64  1  0  0  0  0
 24 65  1  0  0  0  0
 25 66  1  0  0  0  0
 25 67  1  0  0  0  0
 26 68  1  0  0  0  0
 26 69  1  0  0  0  0
 27 70  1  0  0  0  0
 27 71  1  0  0  0  0
 30 72  1  0  0  0  0
 30 73  1  0  0  0  0
 30 74  1  0  0  0  0
 31 75  1  0  0  0  0
 31 76  1  0  0  0  0
 32 77  1  0  0  0  0
 32 78  1  0  0  0  0
 37 79  1  0  0  0  0
M  END
> <scaffold>
tetrahydroisoquinoline-5spiro-isoquinoline

> <compound>
EDJ-MED-dfa1d800-3

> <compound_smiles>
CNC(=O)C1(CC1)N2CC3(CCN(C3=O)c4cncc5c4cc(cc5)OCCN6CCS(=O)(=O)CC6)c7cc(ccc7C2=O)Cl

> <enantiomer_smiles>
CNC(=O)C1(CC1)N2C[C@]3(CCN(C3=O)c4cncc5c4cc(cc5)OCCN6CCS(=O)(=O)CC6)c7cc(ccc7C2=O)Cl

> <clash_score>
0

> <docking_score>
3.4028234663852886e+38

> <overlap_score>
0.9834921360015869

> <MMFF_internal_energy>
150.70227337629592

> <docked_smiles>
CNC(=O)C1(CC1)N2C[C@]3(CCN(C3=O)c4cncc5c4cc(cc5)OCCN6CCS(=O)(=O)CC6)c7cc(ccc7C2=O)Cl

$$$$
EDJ-MED-ee81482e-3_1
  -OEChem-01042202313D

 78 83  0     1  0  0  0  0  0999 V2000
    5.8586    3.9412   26.7874 C   0  0  0  0  0  0  0  0  0  0  0  0
    3.7877    2.4205   19.1658 C   0  0  0  0  0  0  0  0  0  0  0  0
   12.0781    0.0316   24.1532 C   0  0  0  0  0  0  0  0  0  0  0  0
    3.3444    2.6278   20.4409 C   0  0  0  0  0  0  0  0  0  0  0  0
   12.9147   -0.6032   23.2559 C   0  0  0  0  0  0  0  0  0  0  0  0
    4.8986    1.0232   21.2985 C   0  0  0  0  0  0  0  0  0  0  0  0
   11.0005   -1.4332   22.0435 C   0  0  0  0  0  0  0  0  0  0  0  0
    5.3288    1.2339   17.6062 C   0  0  0  0  0  0  0  0  0  0  0  0
    6.8449   -0.2893   18.3747 C   0  0  0  0  0  0  0  0  0  0  0  0
    4.8238    1.4906   18.9051 C   0  0  0  0  0  0  0  0  0  0  0  0
    5.3995    0.7732   19.9944 C   0  0  0  0  0  0  0  0  0  0  0  0
   10.7056   -0.0626   23.9890 C   0  0  0  0  0  0  0  0  0  0  0  0
   10.1421   -0.7766   22.9242 C   0  0  0  0  0  0  0  0  0  0  0  0
    6.4452   -0.1472   19.6975 C   0  0  0  0  0  0  0  0  0  0  0  0
    3.8974    1.9290   21.5048 C   0  0  0  0  0  0  0  0  0  0  0  0
   12.3697   -1.3298   22.2224 C   0  0  0  0  0  0  0  0  0  0  0  0
    8.2504    0.0168   21.4265 C   0  0  0  0  0  0  0  0  0  0  0  0
    9.9496    0.5589   24.9527 C   0  0  0  0  0  0  0  0  0  0  0  0
    7.6892    3.3067   28.4005 C   0  0  0  0  0  0  0  0  0  0  0  0
    6.4580    2.5494   28.8020 C   0  0  0  0  0  0  0  0  0  0  0  0
    8.0155   -2.1541   22.4325 C   0  0  0  0  0  0  0  0  0  0  0  0
    6.9880   -1.9367   21.3575 C   0  0  0  0  0  0  0  0  0  0  0  0
    7.8737   -0.1194   23.8825 C   0  0  0  0  0  0  0  0  0  0  0  0
    6.6816    2.9011   27.3482 C   0  0  0  0  0  0  0  0  0  0  0  0
    8.6253   -0.7606   22.6923 C   0  0  3  0  0  0  0  0  0  0  0  0
    1.3565    3.8098   27.3654 C   0  0  0  0  0  0  0  0  0  0  0  0
   -0.0491    2.4355   25.8369 C   0  0  0  0  0  0  0  0  0  0  0  0
    7.0560    1.7877   26.3958 C   0  0  0  0  0  0  0  0  0  0  0  0
    2.4217    2.5011   25.5339 C   0  0  0  0  0  0  0  0  0  0  0  0
    3.4807    1.0726   23.6950 C   0  0  0  0  0  0  0  0  0  0  0  0
    2.3434    1.2265   24.7004 C   0  0  1  0  0  0  0  0  0  0  0  0
    5.1955    4.7792   26.3354 N   0  0  0  0  0  0  0  0  0  0  0  0
    6.3072    0.3768   17.3417 N   0  0  0  0  0  0  0  0  0  0  0  0
    7.2305   -0.6898   20.7785 N   0  0  0  0  0  0  0  0  0  0  0  0
    8.6625    1.0133   24.4989 N   0  0  3  0  0  0  0  0  0  0  0  0
    1.2985    2.5742   26.5014 N   0  3  0  0  0  0  0  0  0  0  0  0
    8.7514    1.0901   21.1243 O   0  0  0  0  0  0  0  0  0  0  0  0
    6.9865    2.7904   23.9840 O   0  0  0  0  0  0  0  0  0  0  0  0
    8.9572    3.3243   25.4729 O   0  0  0  0  0  0  0  0  0  0  0  0
    2.3394    0.1057   25.5860 O   0  0  0  0  0  0  0  0  0  0  0  0
    3.4243    2.1582   22.7713 O   0  0  0  0  0  0  0  0  0  0  0  0
    7.9493    2.4047   24.9925 S   0  0  0  0  0  0  0  0  0  0  0  0
   13.4297   -2.1462   21.1126 Cl  0  0  0  0  0  0  0  0  0  0  0  0
    3.3418    2.9747   18.3367 H   0  0  0  0  0  0  0  0  0  0  0  0
   12.5046    0.5852   24.9818 H   0  0  0  0  0  0  0  0  0  0  0  0
    2.5418    3.3504   20.6305 H   0  0  0  0  0  0  0  0  0  0  0  0
   13.9930   -0.5302   23.3869 H   0  0  0  0  0  0  0  0  0  0  0  0
    5.3175    0.4856   22.1531 H   0  0  0  0  0  0  0  0  0  0  0  0
   10.6139   -2.0326   21.2341 H   0  0  0  0  0  0  0  0  0  0  0  0
    4.9141    1.7513   16.7475 H   0  0  0  0  0  0  0  0  0  0  0  0
    7.6459   -0.9759   18.1036 H   0  0  0  0  0  0  0  0  0  0  0  0
    9.7590   -0.1307   25.8193 H   0  0  0  0  0  0  0  0  0  0  0  0
   10.4971    1.4368   25.3930 H   0  0  0  0  0  0  0  0  0  0  0  0
    7.7546    4.3491   28.6913 H   0  0  0  0  0  0  0  0  0  0  0  0
    8.6371    2.7826   28.4397 H   0  0  0  0  0  0  0  0  0  0  0  0
    6.5815    1.5179   29.1113 H   0  0  0  0  0  0  0  0  0  0  0  0
    5.7002    3.0851   29.3624 H   0  0  0  0  0  0  0  0  0  0  0  0
    7.5139   -2.5724   23.3172 H   0  0  0  0  0  0  0  0  0  0  0  0
    8.7710   -2.8991   22.1377 H   0  0  0  0  0  0  0  0  0  0  0  0
    7.0576   -2.7256   20.5712 H   0  0  0  0  0  0  0  0  0  0  0  0
    5.9526   -1.9955   21.7714 H   0  0  0  0  0  0  0  0  0  0  0  0
    6.8959    0.2848   23.5662 H   0  0  0  0  0  0  0  0  0  0  0  0
    7.6721   -0.8632   24.6716 H   0  0  0  0  0  0  0  0  0  0  0  0
    1.2683    4.6791   26.7112 H   0  0  0  0  0  0  0  0  0  0  0  0
    0.5248    3.7635   28.0711 H   0  0  0  0  0  0  0  0  0  0  0  0
    2.3150    3.8075   27.8879 H   0  0  0  0  0  0  0  0  0  0  0  0
   -0.1693    3.2734   25.1478 H   0  0  0  0  0  0  0  0  0  0  0  0
   -0.0621    1.4832   25.3033 H   0  0  0  0  0  0  0  0  0  0  0  0
   -0.8109    2.4578   26.6186 H   0  0  0  0  0  0  0  0  0  0  0  0
    6.1643    1.2830   26.0138 H   0  0  0  0  0  0  0  0  0  0  0  0
    7.6970    1.0509   26.8876 H   0  0  0  0  0  0  0  0  0  0  0  0
    3.3449    2.5502   26.1184 H   0  0  0  0  0  0  0  0  0  0  0  0
    2.3342    3.3920   24.9045 H   0  0  0  0  0  0  0  0  0  0  0  0
    3.3867    0.1467   23.1189 H   0  0  0  0  0  0  0  0  0  0  0  0
    4.4541    1.1017   24.1941 H   0  0  0  0  0  0  0  0  0  0  0  0
    1.3813    1.2100   24.1750 H   0  0  0  0  0  0  0  0  0  0  0  0
    1.3841    1.7698   27.1460 H   0  0  0  0  0  0  0  0  0  0  0  0
    1.5594    0.2075   26.1516 H   0  0  0  0  0  0  0  0  0  0  0  0
  1 24  1  0  0  0  0
  1 32  3  0  0  0  0
  2  4  2  0  0  0  0
  2 10  1  0  0  0  0
  3  5  2  0  0  0  0
  3 12  1  0  0  0  0
  4 15  1  0  0  0  0
  5 16  1  0  0  0  0
  6 11  1  0  0  0  0
  6 15  2  0  0  0  0
  7 13  1  0  0  0  0
  7 16  2  0  0  0  0
  8 10  2  0  0  0  0
  8 33  1  0  0  0  0
  9 14  1  0  0  0  0
  9 33  2  0  0  0  0
 10 11  1  0  0  0  0
 11 14  2  0  0  0  0
 12 13  2  0  0  0  0
 12 18  1  0  0  0  0
 13 25  1  0  0  0  0
 14 34  1  0  0  0  0
 15 41  1  0  0  0  0
 16 43  1  0  0  0  0
 17 25  1  0  0  0  0
 17 34  1  0  0  0  0
 17 37  2  0  0  0  0
 18 35  1  0  0  0  0
 19 20  1  0  0  0  0
 19 24  1  0  0  0  0
 20 24  1  0  0  0  0
 21 22  1  0  0  0  0
 21 25  1  0  0  0  0
 22 34  1  0  0  0  0
 23 25  1  0  0  0  0
 23 35  1  0  0  0  0
 24 28  1  0  0  0  0
 26 36  1  0  0  0  0
 27 36  1  0  0  0  0
 28 42  1  0  0  0  0
 29 31  1  0  0  0  0
 29 36  1  0  0  0  0
 30 31  1  0  0  0  0
 30 41  1  0  0  0  0
 31 40  1  1  0  0  0
 35 42  1  0  0  0  0
 38 42  2  0  0  0  0
 39 42  2  0  0  0  0
  2 44  1  0  0  0  0
  3 45  1  0  0  0  0
  4 46  1  0  0  0  0
  5 47  1  0  0  0  0
  6 48  1  0  0  0  0
  7 49  1  0  0  0  0
  8 50  1  0  0  0  0
  9 51  1  0  0  0  0
 18 52  1  0  0  0  0
 18 53  1  0  0  0  0
 19 54  1  0  0  0  0
 19 55  1  0  0  0  0
 20 56  1  0  0  0  0
 20 57  1  0  0  0  0
 21 58  1  0  0  0  0
 21 59  1  0  0  0  0
 22 60  1  0  0  0  0
 22 61  1  0  0  0  0
 23 62  1  0  0  0  0
 23 63  1  0  0  0  0
 26 64  1  0  0  0  0
 26 65  1  0  0  0  0
 26 66  1  0  0  0  0
 27 67  1  0  0  0  0
 27 68  1  0  0  0  0
 27 69  1  0  0  0  0
 28 70  1  0  0  0  0
 28 71  1  0  0  0  0
 29 72  1  0  0  0  0
 29 73  1  0  0  0  0
 30 74  1  0  0  0  0
 30 75  1  0  0  0  0
 31 76  1  0  0  0  0
 36 77  1  0  0  0  0
 40 78  1  0  0  0  0
M  CHG  1  36   1
M  END
> <scaffold>
tetrahydroisoquinoline-5spiro-isoquinoline

> <compound>
EDJ-MED-ee81482e-3

> <compound_smiles>
CN(C)CC(COc1ccc2cncc(c2c1)N3CCC4(C3=O)CN(Cc5c4cc(cc5)Cl)S(=O)(=O)CC6(CC6)C#N)O

> <enantiomer_smiles>
CN(C)C[C@@H](COc1ccc2cncc(c2c1)N3CC[C@]4(C3=O)C[N@](Cc5c4cc(cc5)Cl)S(=O)(=O)CC6(CC6)C#N)O

> <clash_score>
0

> <docking_score>
3.4028234663852886e+38

> <overlap_score>
0.9709704518318176

> <MMFF_internal_energy>
174.04167682230107

> <docked_smiles>
C[NH+](C)C[C@@H](COc1ccc2cncc(c2c1)N3CC[C@]4(C3=O)C[N@@](Cc5c4cc(cc5)Cl)S(=O)(=O)CC6(CC6)C#N)O

$$$$
MAT-POS-40ad851a-1_1
  -OEChem-01042202313D

 78 84  0     1  0  0  0  0  0999 V2000
    7.5460    4.5042   27.4913 C   0  0  0  0  0  0  0  0  0  0  0  0
    3.7877    2.4205   19.1658 C   0  0  0  0  0  0  0  0  0  0  0  0
   12.0781    0.0316   24.1532 C   0  0  0  0  0  0  0  0  0  0  0  0
    3.3444    2.6278   20.4409 C   0  0  0  0  0  0  0  0  0  0  0  0
   12.9147   -0.6032   23.2559 C   0  0  0  0  0  0  0  0  0  0  0  0
    4.8986    1.0232   21.2985 C   0  0  0  0  0  0  0  0  0  0  0  0
   11.0005   -1.4332   22.0435 C   0  0  0  0  0  0  0  0  0  0  0  0
    5.3288    1.2339   17.6062 C   0  0  0  0  0  0  0  0  0  0  0  0
    6.8449   -0.2893   18.3747 C   0  0  0  0  0  0  0  0  0  0  0  0
    4.8238    1.4906   18.9051 C   0  0  0  0  0  0  0  0  0  0  0  0
    5.3995    0.7732   19.9944 C   0  0  0  0  0  0  0  0  0  0  0  0
   10.7056   -0.0626   23.9890 C   0  0  0  0  0  0  0  0  0  0  0  0
   10.1421   -0.7766   22.9242 C   0  0  0  0  0  0  0  0  0  0  0  0
    6.4452   -0.1472   19.6975 C   0  0  0  0  0  0  0  0  0  0  0  0
    3.8974    1.9290   21.5048 C   0  0  0  0  0  0  0  0  0  0  0  0
   12.3697   -1.3298   22.2224 C   0  0  0  0  0  0  0  0  0  0  0  0
    8.2504    0.0168   21.4265 C   0  0  0  0  0  0  0  0  0  0  0  0
    9.9496    0.5589   24.9527 C   0  0  0  0  0  0  0  0  0  0  0  0
    2.9144    1.2212   27.3810 C   0  0  0  0  0  0  0  0  0  0  0  0
    2.9366    0.4286   26.0901 C   0  0  0  0  0  0  0  0  0  0  0  0
    7.5613    5.5267   25.1869 C   0  0  0  0  0  0  0  0  0  0  0  0
    8.8198    5.9629   25.8773 C   0  0  0  0  0  0  0  0  0  0  0  0
    8.0155   -2.1541   22.4325 C   0  0  0  0  0  0  0  0  0  0  0  0
    6.9880   -1.9367   21.3575 C   0  0  0  0  0  0  0  0  0  0  0  0
    7.8737   -0.1194   23.8825 C   0  0  0  0  0  0  0  0  0  0  0  0
    3.9036    2.3424   27.1260 C   0  0  0  0  0  0  0  0  0  0  0  0
    2.9327    1.5201   25.0295 C   0  0  2  0  0  0  0  0  0  0  0  0
    8.2039    4.6238   26.2159 C   0  0  0  0  0  0  0  0  0  0  0  0
    8.6253   -0.7606   22.6923 C   0  0  3  0  0  0  0  0  0  0  0  0
    3.3953    3.9942   25.2844 C   0  0  0  0  0  0  0  0  0  0  0  0
    3.4838    1.0682   23.6896 C   0  0  0  0  0  0  0  0  0  0  0  0
    8.9038    3.3747   25.7291 C   0  0  0  0  0  0  0  0  0  0  0  0
    7.0158    4.4079   28.5189 N   0  0  0  0  0  0  0  0  0  0  0  0
    6.3072    0.3768   17.3417 N   0  0  0  0  0  0  0  0  0  0  0  0
    7.2305   -0.6898   20.7785 N   0  0  0  0  0  0  0  0  0  0  0  0
    8.6625    1.0133   24.4989 N   0  0  3  0  0  0  0  0  0  0  0  0
    3.8229    2.6004   25.6303 N   0  3  3  0  0  0  0  0  0  0  0  0
    8.8314    1.0394   21.0790 O   0  0  0  0  0  0  0  0  0  0  0  0
    7.6787    1.3542   26.8444 O   0  0  0  0  0  0  0  0  0  0  0  0
    6.5979    2.4983   24.8674 O   0  0  0  0  0  0  0  0  0  0  0  0
    3.4243    2.1582   22.7713 O   0  0  0  0  0  0  0  0  0  0  0  0
    7.7725    2.0180   25.5623 S   0  0  0  0  0  0  0  0  0  0  0  0
   13.4285   -2.1410   21.1076 Cl  0  0  0  0  0  0  0  0  0  0  0  0
    3.3418    2.9747   18.3367 H   0  0  0  0  0  0  0  0  0  0  0  0
   12.5038    0.5986   24.9731 H   0  0  0  0  0  0  0  0  0  0  0  0
    2.5418    3.3504   20.6305 H   0  0  0  0  0  0  0  0  0  0  0  0
   13.9925   -0.5165   23.3773 H   0  0  0  0  0  0  0  0  0  0  0  0
    5.3175    0.4856   22.1531 H   0  0  0  0  0  0  0  0  0  0  0  0
   10.6052   -2.0169   21.2237 H   0  0  0  0  0  0  0  0  0  0  0  0
    4.9141    1.7513   16.7475 H   0  0  0  0  0  0  0  0  0  0  0  0
    7.6459   -0.9759   18.1036 H   0  0  0  0  0  0  0  0  0  0  0  0
    9.7866   -0.1187   25.8304 H   0  0  0  0  0  0  0  0  0  0  0  0
   10.4816    1.4567   25.3600 H   0  0  0  0  0  0  0  0  0  0  0  0
    1.9131    1.6308   27.5594 H   0  0  0  0  0  0  0  0  0  0  0  0
    3.1946    0.6126   28.2455 H   0  0  0  0  0  0  0  0  0  0  0  0
    3.8442   -0.1844   26.0322 H   0  0  0  0  0  0  0  0  0  0  0  0
    2.0697   -0.2331   26.0029 H   0  0  0  0  0  0  0  0  0  0  0  0
    6.6435    6.0444   25.4419 H   0  0  0  0  0  0  0  0  0  0  0  0
    7.6311    5.2521   24.1407 H   0  0  0  0  0  0  0  0  0  0  0  0
    9.7326    5.9814   25.2930 H   0  0  0  0  0  0  0  0  0  0  0  0
    8.7438    6.7732   26.5935 H   0  0  0  0  0  0  0  0  0  0  0  0
    7.5167   -2.5459   23.3332 H   0  0  0  0  0  0  0  0  0  0  0  0
    8.7666   -2.9029   22.1426 H   0  0  0  0  0  0  0  0  0  0  0  0
    7.0601   -2.7250   20.5715 H   0  0  0  0  0  0  0  0  0  0  0  0
    5.9530   -1.9963   21.7709 H   0  0  0  0  0  0  0  0  0  0  0  0
    6.8882    0.2643   23.5640 H   0  0  0  0  0  0  0  0  0  0  0  0
    7.6667   -0.8657   24.6729 H   0  0  0  0  0  0  0  0  0  0  0  0
    3.6683    3.2569   27.6784 H   0  0  0  0  0  0  0  0  0  0  0  0
    4.9334    2.0331   27.3319 H   0  0  0  0  0  0  0  0  0  0  0  0
    1.9271    1.9440   24.9207 H   0  0  0  0  0  0  0  0  0  0  0  0
    2.3862    4.1402   25.6740 H   0  0  0  0  0  0  0  0  0  0  0  0
    4.1000    4.6853   25.7507 H   0  0  0  0  0  0  0  0  0  0  0  0
    3.4136    4.0891   24.1970 H   0  0  0  0  0  0  0  0  0  0  0  0
    2.8917    0.2389   23.2912 H   0  0  0  0  0  0  0  0  0  0  0  0
    4.5253    0.7489   23.7908 H   0  0  0  0  0  0  0  0  0  0  0  0
    9.6806    3.0620   26.4324 H   0  0  0  0  0  0  0  0  0  0  0  0
    9.3585    3.5379   24.7483 H   0  0  0  0  0  0  0  0  0  0  0  0
    4.7743    2.4772   25.2574 H   0  0  0  0  0  0  0  0  0  0  0  0
  1 28  1  0  0  0  0
  1 33  3  0  0  0  0
  2  4  2  0  0  0  0
  2 10  1  0  0  0  0
  3  5  2  0  0  0  0
  3 12  1  0  0  0  0
  4 15  1  0  0  0  0
  5 16  1  0  0  0  0
  6 11  1  0  0  0  0
  6 15  2  0  0  0  0
  7 13  1  0  0  0  0
  7 16  2  0  0  0  0
  8 10  2  0  0  0  0
  8 34  1  0  0  0  0
  9 14  1  0  0  0  0
  9 34  2  0  0  0  0
 10 11  1  0  0  0  0
 11 14  2  0  0  0  0
 12 13  2  0  0  0  0
 12 18  1  0  0  0  0
 13 29  1  0  0  0  0
 14 35  1  0  0  0  0
 15 41  1  0  0  0  0
 16 43  1  0  0  0  0
 17 29  1  0  0  0  0
 17 35  1  0  0  0  0
 17 38  2  0  0  0  0
 18 36  1  0  0  0  0
 19 20  1  0  0  0  0
 19 26  1  0  0  0  0
 20 27  1  0  0  0  0
 21 22  1  0  0  0  0
 21 28  1  0  0  0  0
 22 28  1  0  0  0  0
 23 24  1  0  0  0  0
 23 29  1  0  0  0  0
 24 35  1  0  0  0  0
 25 29  1  0  0  0  0
 25 36  1  0  0  0  0
 26 37  1  0  0  0  0
 27 31  1  1  0  0  0
 27 37  1  0  0  0  0
 28 32  1  0  0  0  0
 30 37  1  0  0  0  0
 31 41  1  0  0  0  0
 32 42  1  0  0  0  0
 36 42  1  0  0  0  0
 39 42  2  0  0  0  0
 40 42  2  0  0  0  0
  2 44  1  0  0  0  0
  3 45  1  0  0  0  0
  4 46  1  0  0  0  0
  5 47  1  0  0  0  0
  6 48  1  0  0  0  0
  7 49  1  0  0  0  0
  8 50  1  0  0  0  0
  9 51  1  0  0  0  0
 18 52  1  0  0  0  0
 18 53  1  0  0  0  0
 19 54  1  0  0  0  0
 19 55  1  0  0  0  0
 20 56  1  0  0  0  0
 20 57  1  0  0  0  0
 21 58  1  0  0  0  0
 21 59  1  0  0  0  0
 22 60  1  0  0  0  0
 22 61  1  0  0  0  0
 23 62  1  0  0  0  0
 23 63  1  0  0  0  0
 24 64  1  0  0  0  0
 24 65  1  0  0  0  0
 25 66  1  0  0  0  0
 25 67  1  0  0  0  0
 26 68  1  0  0  0  0
 26 69  1  0  0  0  0
 27 70  1  0  0  0  0
 30 71  1  0  0  0  0
 30 72  1  0  0  0  0
 30 73  1  0  0  0  0
 31 74  1  0  0  0  0
 31 75  1  0  0  0  0
 32 76  1  0  0  0  0
 32 77  1  0  0  0  0
 37 78  1  0  0  0  0
M  CHG  1  37   1
M  END
> <scaffold>
tetrahydroisoquinoline-5spiro-isoquinoline

> <compound>
MAT-POS-40ad851a-1

> <compound_smiles>
CN1CCCC1COc2ccc3cncc(c3c2)N4CCC5(C4=O)CN(Cc6c5cc(cc6)Cl)S(=O)(=O)CC7(CC7)C#N

> <enantiomer_smiles>
C[N@]1CCC[C@@H]1COc2ccc3cncc(c3c2)N4CC[C@]5(C4=O)C[N@@](Cc6c5cc(cc6)Cl)S(=O)(=O)CC7(CC7)C#N

> <clash_score>
0

> <docking_score>
3.4028234663852886e+38

> <overlap_score>
0.9693384170532227

> <MMFF_internal_energy>
125.71264850602525

> <docked_smiles>
C[N@H+]1CCC[C@@H]1COc2ccc3cncc(c3c2)N4CC[C@]5(C4=O)C[N@](Cc6c5cc(cc6)Cl)S(=O)(=O)CC7(CC7)C#N

$$$$
JOH-MSK-cef8a2bc-1_1
  -OEChem-01042202313D

 73 79  0     1  0  0  0  0  0999 V2000
    7.9703    5.6690   24.5763 C   0  0  0  0  0  0  0  0  0  0  0  0
    3.3444    2.6278   20.4409 C   0  0  0  0  0  0  0  0  0  0  0  0
    3.8974    1.9290   21.5048 C   0  0  0  0  0  0  0  0  0  0  0  0
    3.7877    2.4205   19.1658 C   0  0  0  0  0  0  0  0  0  0  0  0
    4.8986    1.0232   21.2985 C   0  0  0  0  0  0  0  0  0  0  0  0
   12.0781    0.0316   24.1532 C   0  0  0  0  0  0  0  0  0  0  0  0
   11.0005   -1.4332   22.0435 C   0  0  0  0  0  0  0  0  0  0  0  0
    5.3288    1.2339   17.6062 C   0  0  0  0  0  0  0  0  0  0  0  0
    6.8449   -0.2893   18.3747 C   0  0  0  0  0  0  0  0  0  0  0  0
    4.8238    1.4906   18.9051 C   0  0  0  0  0  0  0  0  0  0  0  0
    5.3995    0.7732   19.9944 C   0  0  0  0  0  0  0  0  0  0  0  0
   10.7056   -0.0626   23.9890 C   0  0  0  0  0  0  0  0  0  0  0  0
   10.1421   -0.7766   22.9242 C   0  0  0  0  0  0  0  0  0  0  0  0
    6.4452   -0.1472   19.6975 C   0  0  0  0  0  0  0  0  0  0  0  0
   12.9147   -0.6032   23.2559 C   0  0  0  0  0  0  0  0  0  0  0  0
   12.3697   -1.3298   22.2224 C   0  0  0  0  0  0  0  0  0  0  0  0
   10.5646   -6.4616   21.1377 C   0  0  0  0  0  0  0  0  0  0  0  0
    8.2504    0.0168   21.4265 C   0  0  0  0  0  0  0  0  0  0  0  0
    6.9880   -1.9367   21.3575 C   0  0  0  0  0  0  0  0  0  0  0  0
    9.9496    0.5589   24.9527 C   0  0  0  0  0  0  0  0  0  0  0  0
    9.9706   -5.3333   20.3190 C   0  0  0  0  0  0  0  0  0  0  0  0
    8.8640   -4.5590   21.0185 C   0  0  0  0  0  0  0  0  0  0  0  0
    6.2730    5.1257   26.3595 C   0  0  0  0  0  0  0  0  0  0  0  0
    5.7394    4.5993   25.0600 C   0  0  0  0  0  0  0  0  0  0  0  0
    9.6028   -5.4260   23.2162 C   0  0  0  0  0  0  0  0  0  0  0  0
    7.8737   -0.1194   23.8825 C   0  0  0  0  0  0  0  0  0  0  0  0
    9.3143   -4.1568   22.4218 C   0  0  2  0  0  0  0  0  0  0  0  0
    7.2332    4.6578   25.2889 C   0  0  0  0  0  0  0  0  0  0  0  0
    8.6253   -0.7606   22.6923 C   0  0  3  0  0  0  0  0  0  0  0  0
    8.2579   -3.3055   23.1193 C   0  0  0  0  0  0  0  0  0  0  0  0
    7.9706    3.3567   25.5133 C   0  0  0  0  0  0  0  0  0  0  0  0
    8.5643    6.4838   24.0022 N   0  0  0  0  0  0  0  0  0  0  0  0
    6.3072    0.3768   17.3417 N   0  0  0  0  0  0  0  0  0  0  0  0
   10.4573   -6.3602   22.5066 N   0  0  0  0  0  0  0  0  0  0  0  0
    7.2305   -0.6898   20.7785 N   0  0  0  0  0  0  0  0  0  0  0  0
    8.0155   -2.1541   22.4325 N   0  0  0  0  0  0  0  0  0  0  0  0
    8.6625    1.0133   24.4989 N   0  0  3  0  0  0  0  0  0  0  0  0
   11.1822   -7.3763   20.5893 O   0  0  0  0  0  0  0  0  0  0  0  0
    8.7998    1.0396   21.0800 O   0  0  0  0  0  0  0  0  0  0  0  0
    6.1190   -2.7539   21.1344 O   0  0  0  0  0  0  0  0  0  0  0  0
    7.2611    2.6059   23.1133 O   0  0  0  0  0  0  0  0  0  0  0  0
    9.6895    3.1463   23.5566 O   0  0  0  0  0  0  0  0  0  0  0  0
    8.4215    2.5910   23.9775 S   0  0  0  0  0  0  0  0  0  0  0  0
   14.6220   -0.4502   23.4866 Cl  0  0  0  0  0  0  0  0  0  0  0  0
   13.3800   -2.1669   21.0702 Cl  0  0  0  0  0  0  0  0  0  0  0  0
    2.5443    3.3508   20.6368 H   0  0  0  0  0  0  0  0  0  0  0  0
    3.5189    2.1137   22.5166 H   0  0  0  0  0  0  0  0  0  0  0  0
    3.3421    2.9744   18.3363 H   0  0  0  0  0  0  0  0  0  0  0  0
    5.3131    0.4893   22.1569 H   0  0  0  0  0  0  0  0  0  0  0  0
   12.4870    0.5963   24.9847 H   0  0  0  0  0  0  0  0  0  0  0  0
   10.6023   -2.0201   21.2267 H   0  0  0  0  0  0  0  0  0  0  0  0
    4.9151    1.7511   16.7471 H   0  0  0  0  0  0  0  0  0  0  0  0
    7.6455   -0.9765   18.1038 H   0  0  0  0  0  0  0  0  0  0  0  0
    9.7600   -0.1298   25.8172 H   0  0  0  0  0  0  0  0  0  0  0  0
   10.4959    1.4378   25.3859 H   0  0  0  0  0  0  0  0  0  0  0  0
   10.7932   -4.6542   20.0645 H   0  0  0  0  0  0  0  0  0  0  0  0
    9.5840   -5.7531   19.3837 H   0  0  0  0  0  0  0  0  0  0  0  0
    8.6101   -3.6720   20.4266 H   0  0  0  0  0  0  0  0  0  0  0  0
    7.9595   -5.1782   21.0753 H   0  0  0  0  0  0  0  0  0  0  0  0
    6.1745    6.1886   26.5489 H   0  0  0  0  0  0  0  0  0  0  0  0
    6.1420    4.5112   27.2427 H   0  0  0  0  0  0  0  0  0  0  0  0
    5.2500    3.6322   25.0730 H   0  0  0  0  0  0  0  0  0  0  0  0
    5.2830    5.3101   24.3805 H   0  0  0  0  0  0  0  0  0  0  0  0
   10.0937   -5.1893   24.1662 H   0  0  0  0  0  0  0  0  0  0  0  0
    8.6769   -5.9659   23.4466 H   0  0  0  0  0  0  0  0  0  0  0  0
    6.8948    0.2817   23.5687 H   0  0  0  0  0  0  0  0  0  0  0  0
    7.6583   -0.8775   24.6530 H   0  0  0  0  0  0  0  0  0  0  0  0
   10.2281   -3.5537   22.3543 H   0  0  0  0  0  0  0  0  0  0  0  0
    7.3256   -3.8839   23.1986 H   0  0  0  0  0  0  0  0  0  0  0  0
    8.6145   -3.0449   24.1267 H   0  0  0  0  0  0  0  0  0  0  0  0
    7.3474    2.6426   26.0587 H   0  0  0  0  0  0  0  0  0  0  0  0
    8.8942    3.5220   26.0746 H   0  0  0  0  0  0  0  0  0  0  0  0
   11.0228   -6.9914   23.0661 H   0  0  0  0  0  0  0  0  0  0  0  0
  1 28  1  0  0  0  0
  1 32  3  0  0  0  0
  2  3  2  0  0  0  0
  2  4  1  0  0  0  0
  3  5  1  0  0  0  0
  4 10  2  0  0  0  0
  5 11  2  0  0  0  0
  6 12  2  0  0  0  0
  6 15  1  0  0  0  0
  7 13  2  0  0  0  0
  7 16  1  0  0  0  0
  8 10  1  0  0  0  0
  8 33  2  0  0  0  0
  9 14  2  0  0  0  0
  9 33  1  0  0  0  0
 10 11  1  0  0  0  0
 11 14  1  0  0  0  0
 12 13  1  0  0  0  0
 12 20  1  0  0  0  0
 13 29  1  0  0  0  0
 14 35  1  0  0  0  0
 15 16  2  0  0  0  0
 15 44  1  0  0  0  0
 16 45  1  0  0  0  0
 17 21  1  0  0  0  0
 17 34  1  0  0  0  0
 17 38  2  0  0  0  0
 18 29  1  0  0  0  0
 18 35  1  0  0  0  0
 18 39  2  0  0  0  0
 19 35  1  0  0  0  0
 19 36  1  0  0  0  0
 19 40  2  0  0  0  0
 20 37  1  0  0  0  0
 21 22  1  0  0  0  0
 22 27  1  0  0  0  0
 23 24  1  0  0  0  0
 23 28  1  0  0  0  0
 24 28  1  0  0  0  0
 25 27  1  0  0  0  0
 25 34  1  0  0  0  0
 26 29  1  0  0  0  0
 26 37  1  0  0  0  0
 27 30  1  1  0  0  0
 28 31  1  0  0  0  0
 29 36  1  0  0  0  0
 30 36  1  0  0  0  0
 31 43  1  0  0  0  0
 37 43  1  0  0  0  0
 41 43  2  0  0  0  0
 42 43  2  0  0  0  0
  2 46  1  0  0  0  0
  3 47  1  0  0  0  0
  4 48  1  0  0  0  0
  5 49  1  0  0  0  0
  6 50  1  0  0  0  0
  7 51  1  0  0  0  0
  8 52  1  0  0  0  0
  9 53  1  0  0  0  0
 20 54  1  0  0  0  0
 20 55  1  0  0  0  0
 21 56  1  0  0  0  0
 21 57  1  0  0  0  0
 22 58  1  0  0  0  0
 22 59  1  0  0  0  0
 23 60  1  0  0  0  0
 23 61  1  0  0  0  0
 24 62  1  0  0  0  0
 24 63  1  0  0  0  0
 25 64  1  0  0  0  0
 25 65  1  0  0  0  0
 26 66  1  0  0  0  0
 26 67  1  0  0  0  0
 27 68  1  0  0  0  0
 30 69  1  0  0  0  0
 30 70  1  0  0  0  0
 31 71  1  0  0  0  0
 31 72  1  0  0  0  0
 34 73  1  0  0  0  0
M  END
> <scaffold>
tetrahydroisoquinoline-5spiro-isoquinoline

> <compound>
JOH-MSK-cef8a2bc-1

> <compound_smiles>
c1ccc2c(c1)cncc2N3C(=O)C4(CN(Cc5c4cc(c(c5)Cl)Cl)S(=O)(=O)CC6(CC6)C#N)N(C3=O)CC7CCC(=O)NC7

> <enantiomer_smiles>
c1ccc2c(c1)cncc2N3C(=O)[C@@]4(C[N@@](Cc5c4cc(c(c5)Cl)Cl)S(=O)(=O)CC6(CC6)C#N)N(C3=O)C[C@@H]7CCC(=O)NC7

> <clash_score>
8.71681740086272

> <docking_score>
3.4028234663852886e+38

> <overlap_score>
1.0

> <MMFF_internal_energy>
100.39870019201825

> <docked_smiles>
c1ccc2c(c1)cncc2N3C(=O)[C@@]4(C[N@@](Cc5c4cc(c(c5)Cl)Cl)S(=O)(=O)CC6(CC6)C#N)N(C3=O)C[C@@H]7CCC(=O)NC7

$$$$
EDJ-MED-dfa1d800-4_1
  -OEChem-01042202313D

 80 86  0     1  0  0  0  0  0999 V2000
    3.7877    2.4205   19.1658 C   0  0  0  0  0  0  0  0  0  0  0  0
   12.0781    0.0316   24.1532 C   0  0  0  0  0  0  0  0  0  0  0  0
    3.3444    2.6278   20.4409 C   0  0  0  0  0  0  0  0  0  0  0  0
   12.9147   -0.6032   23.2559 C   0  0  0  0  0  0  0  0  0  0  0  0
    4.8986    1.0232   21.2985 C   0  0  0  0  0  0  0  0  0  0  0  0
   11.0005   -1.4332   22.0435 C   0  0  0  0  0  0  0  0  0  0  0  0
    5.3288    1.2339   17.6062 C   0  0  0  0  0  0  0  0  0  0  0  0
    6.8449   -0.2893   18.3747 C   0  0  0  0  0  0  0  0  0  0  0  0
    4.8238    1.4906   18.9051 C   0  0  0  0  0  0  0  0  0  0  0  0
    5.3995    0.7732   19.9944 C   0  0  0  0  0  0  0  0  0  0  0  0
   10.7056   -0.0626   23.9890 C   0  0  0  0  0  0  0  0  0  0  0  0
   10.1421   -0.7766   22.9242 C   0  0  0  0  0  0  0  0  0  0  0  0
    6.4452   -0.1472   19.6975 C   0  0  0  0  0  0  0  0  0  0  0  0
    3.8974    1.9290   21.5048 C   0  0  0  0  0  0  0  0  0  0  0  0
   12.3697   -1.3298   22.2224 C   0  0  0  0  0  0  0  0  0  0  0  0
    9.9496    0.5589   24.9527 C   0  0  0  0  0  0  0  0  0  0  0  0
    8.2504    0.0168   21.4265 C   0  0  0  0  0  0  0  0  0  0  0  0
    7.2743    2.2339   25.9911 C   0  0  0  0  0  0  0  0  0  0  0  0
    7.6484    3.1063   23.6248 C   0  0  0  0  0  0  0  0  0  0  0  0
    8.8572    3.4809   24.4312 C   0  0  0  0  0  0  0  0  0  0  0  0
    8.0155   -2.1541   22.4325 C   0  0  0  0  0  0  0  0  0  0  0  0
    2.6950    4.7314   26.6566 C   0  0  0  0  0  0  0  0  0  0  0  0
    3.1099    2.4498   27.6541 C   0  0  0  0  0  0  0  0  0  0  0  0
    6.9880   -1.9367   21.3575 C   0  0  0  0  0  0  0  0  0  0  0  0
    7.8737   -0.1194   23.8825 C   0  0  0  0  0  0  0  0  0  0  0  0
    1.8097    4.0992   25.5927 C   0  0  0  0  0  0  0  0  0  0  0  0
    2.2231    1.8276   26.5855 C   0  0  0  0  0  0  0  0  0  0  0  0
    8.6253   -0.7606   22.6923 C   0  0  3  0  0  0  0  0  0  0  0  0
    8.0937    2.2235   24.7641 C   0  0  0  0  0  0  0  0  0  0  0  0
    2.7319    3.8951   27.9227 C   0  0  0  0  0  0  0  0  0  0  0  0
    7.3837    1.9520   28.4592 C   0  0  0  0  0  0  0  0  0  0  0  0
    1.5001    2.0474   24.2088 C   0  0  0  0  0  0  0  0  0  0  0  0
    2.0556    2.5430   22.8882 C   0  0  0  0  0  0  0  0  0  0  0  0
    6.3072    0.3768   17.3417 N   0  0  0  0  0  0  0  0  0  0  0  0
    7.2305   -0.6898   20.7785 N   0  0  0  0  0  0  0  0  0  0  0  0
    8.6625    1.0133   24.4989 N   0  0  0  0  0  0  0  0  0  0  0  0
    7.9894    1.9860   27.1473 N   0  0  0  0  0  0  0  0  0  0  0  0
    2.2654    2.6806   25.3383 N   0  3  0  0  0  0  0  0  0  0  0  0
   10.3233    0.7301   26.1084 O   0  0  0  0  0  0  0  0  0  0  0  0
    8.8205    1.0412   21.0776 O   0  0  0  0  0  0  0  0  0  0  0  0
    6.0711    2.4522   25.9123 O   0  0  0  0  0  0  0  0  0  0  0  0
    3.4243    2.1582   22.7713 O   0  0  0  0  0  0  0  0  0  0  0  0
    1.5129    3.9347   28.5207 F   0  0  0  0  0  0  0  0  0  0  0  0
    3.6095    4.4388   28.8013 F   0  0  0  0  0  0  0  0  0  0  0  0
   13.4287   -2.1467   21.1125 Cl  0  0  0  0  0  0  0  0  0  0  0  0
    3.3418    2.9747   18.3367 H   0  0  0  0  0  0  0  0  0  0  0  0
   12.5188    0.5959   24.9712 H   0  0  0  0  0  0  0  0  0  0  0  0
    2.5418    3.3504   20.6305 H   0  0  0  0  0  0  0  0  0  0  0  0
   13.9920   -0.5225   23.3819 H   0  0  0  0  0  0  0  0  0  0  0  0
    5.3175    0.4856   22.1531 H   0  0  0  0  0  0  0  0  0  0  0  0
   10.6143   -2.0253   21.2265 H   0  0  0  0  0  0  0  0  0  0  0  0
    4.9141    1.7513   16.7475 H   0  0  0  0  0  0  0  0  0  0  0  0
    7.6459   -0.9759   18.1036 H   0  0  0  0  0  0  0  0  0  0  0  0
    6.7552    3.7072   23.7499 H   0  0  0  0  0  0  0  0  0  0  0  0
    7.8098    2.7620   22.6100 H   0  0  0  0  0  0  0  0  0  0  0  0
    9.8268    3.3863   23.9564 H   0  0  0  0  0  0  0  0  0  0  0  0
    8.7731    4.3325   25.0962 H   0  0  0  0  0  0  0  0  0  0  0  0
    7.5125   -2.5270   23.3387 H   0  0  0  0  0  0  0  0  0  0  0  0
    8.7589   -2.9107   22.1432 H   0  0  0  0  0  0  0  0  0  0  0  0
    3.7131    4.8642   26.2707 H   0  0  0  0  0  0  0  0  0  0  0  0
    2.3172    5.7328   26.8920 H   0  0  0  0  0  0  0  0  0  0  0  0
    3.0194    1.8709   28.5805 H   0  0  0  0  0  0  0  0  0  0  0  0
    4.1625    2.3923   27.3513 H   0  0  0  0  0  0  0  0  0  0  0  0
    7.0600   -2.7259   20.5720 H   0  0  0  0  0  0  0  0  0  0  0  0
    5.9527   -1.9961   21.7709 H   0  0  0  0  0  0  0  0  0  0  0  0
    6.9276    0.3247   23.5633 H   0  0  0  0  0  0  0  0  0  0  0  0
    7.6527   -0.8545   24.6567 H   0  0  0  0  0  0  0  0  0  0  0  0
    0.7629    4.0583   25.9061 H   0  0  0  0  0  0  0  0  0  0  0  0
    1.8943    4.6435   24.6489 H   0  0  0  0  0  0  0  0  0  0  0  0
    2.5874    0.8337   26.3140 H   0  0  0  0  0  0  0  0  0  0  0  0
    1.1801    1.7661   26.9079 H   0  0  0  0  0  0  0  0  0  0  0  0
    7.4072    2.9593   28.9006 H   0  0  0  0  0  0  0  0  0  0  0  0
    6.3405    1.6140   28.3726 H   0  0  0  0  0  0  0  0  0  0  0  0
    7.9423    1.2567   29.1029 H   0  0  0  0  0  0  0  0  0  0  0  0
    1.6168    0.9663   24.3252 H   0  0  0  0  0  0  0  0  0  0  0  0
    0.4532    2.3335   24.3400 H   0  0  0  0  0  0  0  0  0  0  0  0
    1.5049    2.0878   22.0591 H   0  0  0  0  0  0  0  0  0  0  0  0
    1.9835    3.6321   22.8023 H   0  0  0  0  0  0  0  0  0  0  0  0
    8.9884    1.8197   27.0716 H   0  0  0  0  0  0  0  0  0  0  0  0
    3.2507    2.7292   25.0395 H   0  0  0  0  0  0  0  0  0  0  0  0
  1  3  2  0  0  0  0
  1  9  1  0  0  0  0
  2  4  2  0  0  0  0
  2 11  1  0  0  0  0
  3 14  1  0  0  0  0
  4 15  1  0  0  0  0
  5 10  1  0  0  0  0
  5 14  2  0  0  0  0
  6 12  1  0  0  0  0
  6 15  2  0  0  0  0
  7  9  2  0  0  0  0
  7 34  1  0  0  0  0
  8 13  1  0  0  0  0
  8 34  2  0  0  0  0
  9 10  1  0  0  0  0
 10 13  2  0  0  0  0
 11 12  2  0  0  0  0
 11 16  1  0  0  0  0
 12 28  1  0  0  0  0
 13 35  1  0  0  0  0
 14 42  1  0  0  0  0
 15 45  1  0  0  0  0
 16 36  1  0  0  0  0
 16 39  2  0  0  0  0
 17 28  1  0  0  0  0
 17 35  1  0  0  0  0
 17 40  2  0  0  0  0
 18 29  1  0  0  0  0
 18 37  1  0  0  0  0
 18 41  2  0  0  0  0
 19 20  1  0  0  0  0
 19 29  1  0  0  0  0
 20 29  1  0  0  0  0
 21 24  1  0  0  0  0
 21 28  1  0  0  0  0
 22 26  1  0  0  0  0
 22 30  1  0  0  0  0
 23 27  1  0  0  0  0
 23 30  1  0  0  0  0
 24 35  1  0  0  0  0
 25 28  1  0  0  0  0
 25 36  1  0  0  0  0
 26 38  1  0  0  0  0
 27 38  1  0  0  0  0
 29 36  1  0  0  0  0
 30 43  1  0  0  0  0
 30 44  1  0  0  0  0
 31 37  1  0  0  0  0
 32 33  1  0  0  0  0
 32 38  1  0  0  0  0
 33 42  1  0  0  0  0
  1 46  1  0  0  0  0
  2 47  1  0  0  0  0
  3 48  1  0  0  0  0
  4 49  1  0  0  0  0
  5 50  1  0  0  0  0
  6 51  1  0  0  0  0
  7 52  1  0  0  0  0
  8 53  1  0  0  0  0
 19 54  1  0  0  0  0
 19 55  1  0  0  0  0
 20 56  1  0  0  0  0
 20 57  1  0  0  0  0
 21 58  1  0  0  0  0
 21 59  1  0  0  0  0
 22 60  1  0  0  0  0
 22 61  1  0  0  0  0
 23 62  1  0  0  0  0
 23 63  1  0  0  0  0
 24 64  1  0  0  0  0
 24 65  1  0  0  0  0
 25 66  1  0  0  0  0
 25 67  1  0  0  0  0
 26 68  1  0  0  0  0
 26 69  1  0  0  0  0
 27 70  1  0  0  0  0
 27 71  1  0  0  0  0
 31 72  1  0  0  0  0
 31 73  1  0  0  0  0
 31 74  1  0  0  0  0
 32 75  1  0  0  0  0
 32 76  1  0  0  0  0
 33 77  1  0  0  0  0
 33 78  1  0  0  0  0
 37 79  1  0  0  0  0
 38 80  1  0  0  0  0
M  CHG  1  38   1
M  END
> <scaffold>
tetrahydroisoquinoline-5spiro-isoquinoline

> <compound>
EDJ-MED-dfa1d800-4

> <compound_smiles>
CNC(=O)C1(CC1)N2CC3(CCN(C3=O)c4cncc5c4cc(cc5)OCCN6CCC(CC6)(F)F)c7cc(ccc7C2=O)Cl

> <enantiomer_smiles>
CNC(=O)C1(CC1)N2C[C@]3(CCN(C3=O)c4cncc5c4cc(cc5)OCCN6CCC(CC6)(F)F)c7cc(ccc7C2=O)Cl

> <clash_score>
0

> <docking_score>
3.4028234663852886e+38

> <overlap_score>
0.9825511574745178

> <MMFF_internal_energy>
130.2894421686335

> <docked_smiles>
CNC(=O)C1(CC1)N2C[C@]3(CCN(C3=O)c4cncc5c4cc(cc5)OCC[NH+]6CCC(CC6)(F)F)c7cc(ccc7C2=O)Cl

$$$$
EDJ-MED-468565e0-1_1
  -OEChem-01042202313D

 78 84  0     1  0  0  0  0  0999 V2000
    5.2967    3.5514   26.2583 C   0  0  0  0  0  0  0  0  0  0  0  0
    3.7877    2.4205   19.1658 C   0  0  0  0  0  0  0  0  0  0  0  0
   12.0781    0.0316   24.1532 C   0  0  0  0  0  0  0  0  0  0  0  0
    3.3444    2.6278   20.4409 C   0  0  0  0  0  0  0  0  0  0  0  0
   12.9147   -0.6032   23.2559 C   0  0  0  0  0  0  0  0  0  0  0  0
    4.8986    1.0232   21.2985 C   0  0  0  0  0  0  0  0  0  0  0  0
   11.0005   -1.4332   22.0435 C   0  0  0  0  0  0  0  0  0  0  0  0
    5.3288    1.2339   17.6062 C   0  0  0  0  0  0  0  0  0  0  0  0
    6.8449   -0.2893   18.3747 C   0  0  0  0  0  0  0  0  0  0  0  0
    4.8238    1.4906   18.9051 C   0  0  0  0  0  0  0  0  0  0  0  0
    5.3995    0.7732   19.9944 C   0  0  0  0  0  0  0  0  0  0  0  0
   10.7056   -0.0626   23.9890 C   0  0  0  0  0  0  0  0  0  0  0  0
   10.1421   -0.7766   22.9242 C   0  0  0  0  0  0  0  0  0  0  0  0
    6.4452   -0.1472   19.6975 C   0  0  0  0  0  0  0  0  0  0  0  0
    3.8974    1.9290   21.5048 C   0  0  0  0  0  0  0  0  0  0  0  0
   12.3697   -1.3298   22.2224 C   0  0  0  0  0  0  0  0  0  0  0  0
    8.2504    0.0168   21.4265 C   0  0  0  0  0  0  0  0  0  0  0  0
    9.9496    0.5589   24.9527 C   0  0  0  0  0  0  0  0  0  0  0  0
   -1.3033    0.8929   24.2561 C   0  0  0  0  0  0  0  0  0  0  0  0
   -0.7243   -0.4983   24.0954 C   0  0  0  0  0  0  0  0  0  0  0  0
    6.9792    3.7161   28.1285 C   0  0  0  0  0  0  0  0  0  0  0  0
    5.9429    2.7153   28.5471 C   0  0  0  0  0  0  0  0  0  0  0  0
    8.0155   -2.1541   22.4325 C   0  0  0  0  0  0  0  0  0  0  0  0
    6.9880   -1.9367   21.3575 C   0  0  0  0  0  0  0  0  0  0  0  0
    7.8737   -0.1194   23.8825 C   0  0  0  0  0  0  0  0  0  0  0  0
   -0.1208    1.6849   24.7712 C   0  0  0  0  0  0  0  0  0  0  0  0
    0.6553   -0.2579   23.5079 C   0  0  0  0  0  0  0  0  0  0  0  0
    6.2729    2.8850   27.0810 C   0  0  0  0  0  0  0  0  0  0  0  0
    8.6253   -0.7606   22.6923 C   0  0  3  0  0  0  0  0  0  0  0  0
    7.0560    1.7877   26.3958 C   0  0  0  0  0  0  0  0  0  0  0  0
    2.3501    1.1994   24.6970 C   0  0  0  0  0  0  0  0  0  0  0  0
    3.4807    1.0726   23.6950 C   0  0  0  0  0  0  0  0  0  0  0  0
    4.5102    4.0883   25.5954 N   0  0  0  0  0  0  0  0  0  0  0  0
    6.3072    0.3768   17.3417 N   0  0  0  0  0  0  0  0  0  0  0  0
    7.2305   -0.6898   20.7785 N   0  0  0  0  0  0  0  0  0  0  0  0
    8.6625    1.0133   24.4989 N   0  0  3  0  0  0  0  0  0  0  0  0
    1.0421    1.1332   23.9761 N   0  3  0  0  0  0  0  0  0  0  0  0
    8.7514    1.0901   21.1243 O   0  0  0  0  0  0  0  0  0  0  0  0
    6.9865    2.7904   23.9840 O   0  0  0  0  0  0  0  0  0  0  0  0
    8.9572    3.3243   25.4729 O   0  0  0  0  0  0  0  0  0  0  0  0
    3.4243    2.1582   22.7713 O   0  0  0  0  0  0  0  0  0  0  0  0
    7.9493    2.4047   24.9925 S   0  0  0  0  0  0  0  0  0  0  0  0
   13.4297   -2.1462   21.1126 Cl  0  0  0  0  0  0  0  0  0  0  0  0
    3.3418    2.9747   18.3367 H   0  0  0  0  0  0  0  0  0  0  0  0
   12.5046    0.5852   24.9818 H   0  0  0  0  0  0  0  0  0  0  0  0
    2.5418    3.3504   20.6305 H   0  0  0  0  0  0  0  0  0  0  0  0
   13.9930   -0.5302   23.3869 H   0  0  0  0  0  0  0  0  0  0  0  0
    5.3175    0.4856   22.1531 H   0  0  0  0  0  0  0  0  0  0  0  0
   10.6139   -2.0326   21.2341 H   0  0  0  0  0  0  0  0  0  0  0  0
    4.9141    1.7513   16.7475 H   0  0  0  0  0  0  0  0  0  0  0  0
    7.6459   -0.9759   18.1036 H   0  0  0  0  0  0  0  0  0  0  0  0
    9.7590   -0.1307   25.8193 H   0  0  0  0  0  0  0  0  0  0  0  0
   10.4971    1.4368   25.3930 H   0  0  0  0  0  0  0  0  0  0  0  0
   -1.6386    1.2848   23.2885 H   0  0  0  0  0  0  0  0  0  0  0  0
   -2.1493    0.9125   24.9488 H   0  0  0  0  0  0  0  0  0  0  0  0
   -0.6372   -0.9862   25.0735 H   0  0  0  0  0  0  0  0  0  0  0  0
   -1.3417   -1.1321   23.4523 H   0  0  0  0  0  0  0  0  0  0  0  0
    6.7292    4.7669   28.2223 H   0  0  0  0  0  0  0  0  0  0  0  0
    8.0151    3.4923   28.3559 H   0  0  0  0  0  0  0  0  0  0  0  0
    6.2848    1.8214   29.0559 H   0  0  0  0  0  0  0  0  0  0  0  0
    4.9999    3.0968   28.9218 H   0  0  0  0  0  0  0  0  0  0  0  0
    7.5139   -2.5724   23.3172 H   0  0  0  0  0  0  0  0  0  0  0  0
    8.7710   -2.8991   22.1377 H   0  0  0  0  0  0  0  0  0  0  0  0
    7.0576   -2.7256   20.5712 H   0  0  0  0  0  0  0  0  0  0  0  0
    5.9526   -1.9955   21.7714 H   0  0  0  0  0  0  0  0  0  0  0  0
    6.8959    0.2848   23.5662 H   0  0  0  0  0  0  0  0  0  0  0  0
    7.6721   -0.8632   24.6716 H   0  0  0  0  0  0  0  0  0  0  0  0
   -0.1933    2.7589   24.5858 H   0  0  0  0  0  0  0  0  0  0  0  0
    0.0682    1.4828   25.8303 H   0  0  0  0  0  0  0  0  0  0  0  0
    1.3958   -0.9834   23.8561 H   0  0  0  0  0  0  0  0  0  0  0  0
    0.6370   -0.2303   22.4142 H   0  0  0  0  0  0  0  0  0  0  0  0
    6.3903    0.9996   26.0331 H   0  0  0  0  0  0  0  0  0  0  0  0
    7.7894    1.3466   27.0764 H   0  0  0  0  0  0  0  0  0  0  0  0
    2.3668    2.1611   25.2176 H   0  0  0  0  0  0  0  0  0  0  0  0
    2.3536    0.3768   25.4169 H   0  0  0  0  0  0  0  0  0  0  0  0
    4.4435    1.1200   24.2132 H   0  0  0  0  0  0  0  0  0  0  0  0
    3.4258    0.1302   23.1404 H   0  0  0  0  0  0  0  0  0  0  0  0
    1.1293    1.7165   23.1316 H   0  0  0  0  0  0  0  0  0  0  0  0
  1 28  1  0  0  0  0
  1 33  3  0  0  0  0
  2  4  2  0  0  0  0
  2 10  1  0  0  0  0
  3  5  2  0  0  0  0
  3 12  1  0  0  0  0
  4 15  1  0  0  0  0
  5 16  1  0  0  0  0
  6 11  1  0  0  0  0
  6 15  2  0  0  0  0
  7 13  1  0  0  0  0
  7 16  2  0  0  0  0
  8 10  2  0  0  0  0
  8 34  1  0  0  0  0
  9 14  1  0  0  0  0
  9 34  2  0  0  0  0
 10 11  1  0  0  0  0
 11 14  2  0  0  0  0
 12 13  2  0  0  0  0
 12 18  1  0  0  0  0
 13 29  1  0  0  0  0
 14 35  1  0  0  0  0
 15 41  1  0  0  0  0
 16 43  1  0  0  0  0
 17 29  1  0  0  0  0
 17 35  1  0  0  0  0
 17 38  2  0  0  0  0
 18 36  1  0  0  0  0
 19 20  1  0  0  0  0
 19 26  1  0  0  0  0
 20 27  1  0  0  0  0
 21 22  1  0  0  0  0
 21 28  1  0  0  0  0
 22 28  1  0  0  0  0
 23 24  1  0  0  0  0
 23 29  1  0  0  0  0
 24 35  1  0  0  0  0
 25 29  1  0  0  0  0
 25 36  1  0  0  0  0
 26 37  1  0  0  0  0
 27 37  1  0  0  0  0
 28 30  1  0  0  0  0
 30 42  1  0  0  0  0
 31 32  1  0  0  0  0
 31 37  1  0  0  0  0
 32 41  1  0  0  0  0
 36 42  1  0  0  0  0
 39 42  2  0  0  0  0
 40 42  2  0  0  0  0
  2 44  1  0  0  0  0
  3 45  1  0  0  0  0
  4 46  1  0  0  0  0
  5 47  1  0  0  0  0
  6 48  1  0  0  0  0
  7 49  1  0  0  0  0
  8 50  1  0  0  0  0
  9 51  1  0  0  0  0
 18 52  1  0  0  0  0
 18 53  1  0  0  0  0
 19 54  1  0  0  0  0
 19 55  1  0  0  0  0
 20 56  1  0  0  0  0
 20 57  1  0  0  0  0
 21 58  1  0  0  0  0
 21 59  1  0  0  0  0
 22 60  1  0  0  0  0
 22 61  1  0  0  0  0
 23 62  1  0  0  0  0
 23 63  1  0  0  0  0
 24 64  1  0  0  0  0
 24 65  1  0  0  0  0
 25 66  1  0  0  0  0
 25 67  1  0  0  0  0
 26 68  1  0  0  0  0
 26 69  1  0  0  0  0
 27 70  1  0  0  0  0
 27 71  1  0  0  0  0
 30 72  1  0  0  0  0
 30 73  1  0  0  0  0
 31 74  1  0  0  0  0
 31 75  1  0  0  0  0
 32 76  1  0  0  0  0
 32 77  1  0  0  0  0
 37 78  1  0  0  0  0
M  CHG  1  37   1
M  END
> <scaffold>
tetrahydroisoquinoline-5spiro-isoquinoline

> <compound>
EDJ-MED-468565e0-1

> <compound_smiles>
c1cc2cncc(c2cc1OCCN3CCCC3)N4CCC5(C4=O)CN(Cc6c5cc(cc6)Cl)S(=O)(=O)CC7(CC7)C#N

> <enantiomer_smiles>
c1cc2cncc(c2cc1OCCN3CCCC3)N4CC[C@]5(C4=O)C[N@@](Cc6c5cc(cc6)Cl)S(=O)(=O)CC7(CC7)C#N

> <clash_score>
0

> <docking_score>
3.4028234663852886e+38

> <overlap_score>
0.9703416228294373

> <MMFF_internal_energy>
146.43848139094663

> <docked_smiles>
c1cc2cncc(c2cc1OCC[NH+]3CCCC3)N4CC[C@]5(C4=O)C[N@@](Cc6c5cc(cc6)Cl)S(=O)(=O)CC7(CC7)C#N

$$$$
LUO-POS-d1147590-1_1
  -OEChem-01042202313D

 78 84  0     1  0  0  0  0  0999 V2000
    7.0607    3.9747   27.5966 C   0  0  0  0  0  0  0  0  0  0  0  0
    3.7877    2.4205   19.1658 C   0  0  0  0  0  0  0  0  0  0  0  0
   12.0781    0.0316   24.1532 C   0  0  0  0  0  0  0  0  0  0  0  0
    3.3444    2.6278   20.4409 C   0  0  0  0  0  0  0  0  0  0  0  0
   12.9147   -0.6032   23.2559 C   0  0  0  0  0  0  0  0  0  0  0  0
    4.8986    1.0232   21.2985 C   0  0  0  0  0  0  0  0  0  0  0  0
   11.0005   -1.4332   22.0435 C   0  0  0  0  0  0  0  0  0  0  0  0
    5.3288    1.2339   17.6062 C   0  0  0  0  0  0  0  0  0  0  0  0
    6.8449   -0.2893   18.3747 C   0  0  0  0  0  0  0  0  0  0  0  0
    4.8238    1.4906   18.9051 C   0  0  0  0  0  0  0  0  0  0  0  0
    5.3995    0.7732   19.9944 C   0  0  0  0  0  0  0  0  0  0  0  0
   10.7056   -0.0626   23.9890 C   0  0  0  0  0  0  0  0  0  0  0  0
   10.1421   -0.7766   22.9242 C   0  0  0  0  0  0  0  0  0  0  0  0
    6.4452   -0.1472   19.6975 C   0  0  0  0  0  0  0  0  0  0  0  0
    3.8974    1.9290   21.5048 C   0  0  0  0  0  0  0  0  0  0  0  0
   12.3697   -1.3298   22.2224 C   0  0  0  0  0  0  0  0  0  0  0  0
    8.2504    0.0168   21.4265 C   0  0  0  0  0  0  0  0  0  0  0  0
    9.9496    0.5589   24.9527 C   0  0  0  0  0  0  0  0  0  0  0  0
    5.0345    2.4974   27.8576 C   0  0  0  0  0  0  0  0  0  0  0  0
    4.8968    3.2168   26.5484 C   0  0  0  0  0  0  0  0  0  0  0  0
    8.0155   -2.1541   22.4325 C   0  0  0  0  0  0  0  0  0  0  0  0
    1.3657    3.1969   23.4278 C   0  0  0  0  0  0  0  0  0  0  0  0
    1.9009    0.8295   24.0895 C   0  0  0  0  0  0  0  0  0  0  0  0
    6.9880   -1.9367   21.3575 C   0  0  0  0  0  0  0  0  0  0  0  0
    7.8737   -0.1194   23.8825 C   0  0  0  0  0  0  0  0  0  0  0  0
   -0.0881    2.9733   23.8137 C   0  0  0  0  0  0  0  0  0  0  0  0
    0.4458    0.6114   24.4740 C   0  0  0  0  0  0  0  0  0  0  0  0
    2.0456    1.8971   23.0079 C   0  0  0  0  0  0  0  0  0  0  0  0
    6.2729    2.8850   27.0810 C   0  0  0  0  0  0  0  0  0  0  0  0
    8.6253   -0.7606   22.6923 C   0  0  3  0  0  0  0  0  0  0  0  0
   -1.5685    1.7498   25.4048 C   0  0  0  0  0  0  0  0  0  0  0  0
    7.0560    1.7877   26.3958 C   0  0  0  0  0  0  0  0  0  0  0  0
    7.6954    4.8525   28.0121 N   0  0  0  0  0  0  0  0  0  0  0  0
    6.3072    0.3768   17.3417 N   0  0  0  0  0  0  0  0  0  0  0  0
    7.2305   -0.6898   20.7785 N   0  0  0  0  0  0  0  0  0  0  0  0
    8.6625    1.0133   24.4989 N   0  0  3  0  0  0  0  0  0  0  0  0
   -0.1625    1.9268   24.9010 N   0  3  0  0  0  0  0  0  0  0  0  0
    8.7514    1.0901   21.1243 O   0  0  0  0  0  0  0  0  0  0  0  0
    6.9865    2.7904   23.9840 O   0  0  0  0  0  0  0  0  0  0  0  0
    8.9572    3.3243   25.4729 O   0  0  0  0  0  0  0  0  0  0  0  0
    3.4243    2.1582   22.7713 O   0  0  0  0  0  0  0  0  0  0  0  0
    7.9493    2.4047   24.9925 S   0  0  0  0  0  0  0  0  0  0  0  0
   13.4297   -2.1462   21.1126 Cl  0  0  0  0  0  0  0  0  0  0  0  0
    3.3418    2.9747   18.3367 H   0  0  0  0  0  0  0  0  0  0  0  0
   12.5046    0.5852   24.9818 H   0  0  0  0  0  0  0  0  0  0  0  0
    2.5418    3.3504   20.6305 H   0  0  0  0  0  0  0  0  0  0  0  0
   13.9930   -0.5302   23.3869 H   0  0  0  0  0  0  0  0  0  0  0  0
    5.3175    0.4856   22.1531 H   0  0  0  0  0  0  0  0  0  0  0  0
   10.6139   -2.0326   21.2341 H   0  0  0  0  0  0  0  0  0  0  0  0
    4.9141    1.7513   16.7475 H   0  0  0  0  0  0  0  0  0  0  0  0
    7.6459   -0.9759   18.1036 H   0  0  0  0  0  0  0  0  0  0  0  0
    9.7590   -0.1307   25.8193 H   0  0  0  0  0  0  0  0  0  0  0  0
   10.4971    1.4368   25.3930 H   0  0  0  0  0  0  0  0  0  0  0  0
    4.7871    3.0452   28.7599 H   0  0  0  0  0  0  0  0  0  0  0  0
    4.7487    1.4524   27.8896 H   0  0  0  0  0  0  0  0  0  0  0  0
    4.5178    2.6535   25.7034 H   0  0  0  0  0  0  0  0  0  0  0  0
    4.5563    4.2457   26.5749 H   0  0  0  0  0  0  0  0  0  0  0  0
    7.5139   -2.5724   23.3172 H   0  0  0  0  0  0  0  0  0  0  0  0
    8.7710   -2.8991   22.1377 H   0  0  0  0  0  0  0  0  0  0  0  0
    1.4257    3.9237   22.6084 H   0  0  0  0  0  0  0  0  0  0  0  0
    1.9128    3.6522   24.2640 H   0  0  0  0  0  0  0  0  0  0  0  0
    2.4868    1.1132   24.9736 H   0  0  0  0  0  0  0  0  0  0  0  0
    2.3379   -0.1127   23.7380 H   0  0  0  0  0  0  0  0  0  0  0  0
    7.0576   -2.7256   20.5712 H   0  0  0  0  0  0  0  0  0  0  0  0
    5.9526   -1.9955   21.7714 H   0  0  0  0  0  0  0  0  0  0  0  0
    6.8959    0.2848   23.5662 H   0  0  0  0  0  0  0  0  0  0  0  0
    7.6721   -0.8632   24.6716 H   0  0  0  0  0  0  0  0  0  0  0  0
   -0.5281    3.8934   24.2117 H   0  0  0  0  0  0  0  0  0  0  0  0
   -0.6852    2.6167   22.9669 H   0  0  0  0  0  0  0  0  0  0  0  0
   -0.1454    0.2279   23.6352 H   0  0  0  0  0  0  0  0  0  0  0  0
    0.3702   -0.0774   25.3218 H   0  0  0  0  0  0  0  0  0  0  0  0
    1.6045    1.5407   22.0692 H   0  0  0  0  0  0  0  0  0  0  0  0
   -2.1760    1.3805   24.5766 H   0  0  0  0  0  0  0  0  0  0  0  0
   -1.5416    1.0288   26.2240 H   0  0  0  0  0  0  0  0  0  0  0  0
   -1.9248    2.7224   25.7496 H   0  0  0  0  0  0  0  0  0  0  0  0
    6.3903    0.9996   26.0331 H   0  0  0  0  0  0  0  0  0  0  0  0
    7.7894    1.3466   27.0764 H   0  0  0  0  0  0  0  0  0  0  0  0
    0.3895    2.2746   25.6972 H   0  0  0  0  0  0  0  0  0  0  0  0
  1 29  1  0  0  0  0
  1 33  3  0  0  0  0
  2  4  2  0  0  0  0
  2 10  1  0  0  0  0
  3  5  2  0  0  0  0
  3 12  1  0  0  0  0
  4 15  1  0  0  0  0
  5 16  1  0  0  0  0
  6 11  1  0  0  0  0
  6 15  2  0  0  0  0
  7 13  1  0  0  0  0
  7 16  2  0  0  0  0
  8 10  2  0  0  0  0
  8 34  1  0  0  0  0
  9 14  1  0  0  0  0
  9 34  2  0  0  0  0
 10 11  1  0  0  0  0
 11 14  2  0  0  0  0
 12 13  2  0  0  0  0
 12 18  1  0  0  0  0
 13 30  1  0  0  0  0
 14 35  1  0  0  0  0
 15 41  1  0  0  0  0
 16 43  1  0  0  0  0
 17 30  1  0  0  0  0
 17 35  1  0  0  0  0
 17 38  2  0  0  0  0
 18 36  1  0  0  0  0
 19 20  1  0  0  0  0
 19 29  1  0  0  0  0
 20 29  1  0  0  0  0
 21 24  1  0  0  0  0
 21 30  1  0  0  0  0
 22 26  1  0  0  0  0
 22 28  1  0  0  0  0
 23 27  1  0  0  0  0
 23 28  1  0  0  0  0
 24 35  1  0  0  0  0
 25 30  1  0  0  0  0
 25 36  1  0  0  0  0
 26 37  1  0  0  0  0
 27 37  1  0  0  0  0
 28 41  1  0  0  0  0
 29 32  1  0  0  0  0
 31 37  1  0  0  0  0
 32 42  1  0  0  0  0
 36 42  1  0  0  0  0
 39 42  2  0  0  0  0
 40 42  2  0  0  0  0
  2 44  1  0  0  0  0
  3 45  1  0  0  0  0
  4 46  1  0  0  0  0
  5 47  1  0  0  0  0
  6 48  1  0  0  0  0
  7 49  1  0  0  0  0
  8 50  1  0  0  0  0
  9 51  1  0  0  0  0
 18 52  1  0  0  0  0
 18 53  1  0  0  0  0
 19 54  1  0  0  0  0
 19 55  1  0  0  0  0
 20 56  1  0  0  0  0
 20 57  1  0  0  0  0
 21 58  1  0  0  0  0
 21 59  1  0  0  0  0
 22 60  1  0  0  0  0
 22 61  1  0  0  0  0
 23 62  1  0  0  0  0
 23 63  1  0  0  0  0
 24 64  1  0  0  0  0
 24 65  1  0  0  0  0
 25 66  1  0  0  0  0
 25 67  1  0  0  0  0
 26 68  1  0  0  0  0
 26 69  1  0  0  0  0
 27 70  1  0  0  0  0
 27 71  1  0  0  0  0
 28 72  1  0  0  0  0
 31 73  1  0  0  0  0
 31 74  1  0  0  0  0
 31 75  1  0  0  0  0
 32 76  1  0  0  0  0
 32 77  1  0  0  0  0
 37 78  1  0  0  0  0
M  CHG  1  37   1
M  END
> <scaffold>
tetrahydroisoquinoline-5spiro-isoquinoline

> <compound>
LUO-POS-d1147590-1

> <compound_smiles>
CN1CCC(CC1)Oc2ccc3cncc(c3c2)N4CCC5(C4=O)CN(Cc6c5cc(cc6)Cl)S(=O)(=O)CC7(CC7)C#N

> <enantiomer_smiles>
CN1CCC(CC1)Oc2ccc3cncc(c3c2)N4CC[C@]5(C4=O)C[N@](Cc6c5cc(cc6)Cl)S(=O)(=O)CC7(CC7)C#N

> <clash_score>
0

> <docking_score>
3.4028234663852886e+38

> <overlap_score>
0.9703687429428101

> <MMFF_internal_energy>
123.90137214774575

> <docked_smiles>
C[NH+]1CCC(CC1)Oc2ccc3cncc(c3c2)N4CC[C@]5(C4=O)C[N@@](Cc6c5cc(cc6)Cl)S(=O)(=O)CC7(CC7)C#N

$$$$
EDJ-MED-ee81482e-4_1
  -OEChem-01042202313D

 75 81  0     1  0  0  0  0  0999 V2000
    7.0607    3.9747   27.5966 C   0  0  0  0  0  0  0  0  0  0  0  0
    3.7877    2.4205   19.1658 C   0  0  0  0  0  0  0  0  0  0  0  0
   12.0781    0.0316   24.1532 C   0  0  0  0  0  0  0  0  0  0  0  0
    3.3444    2.6278   20.4409 C   0  0  0  0  0  0  0  0  0  0  0  0
   12.9147   -0.6032   23.2559 C   0  0  0  0  0  0  0  0  0  0  0  0
    4.8986    1.0232   21.2985 C   0  0  0  0  0  0  0  0  0  0  0  0
   11.0005   -1.4332   22.0435 C   0  0  0  0  0  0  0  0  0  0  0  0
    5.3288    1.2339   17.6062 C   0  0  0  0  0  0  0  0  0  0  0  0
    6.8449   -0.2893   18.3747 C   0  0  0  0  0  0  0  0  0  0  0  0
    4.8238    1.4906   18.9051 C   0  0  0  0  0  0  0  0  0  0  0  0
    5.3995    0.7732   19.9944 C   0  0  0  0  0  0  0  0  0  0  0  0
   10.7056   -0.0626   23.9890 C   0  0  0  0  0  0  0  0  0  0  0  0
   10.1421   -0.7766   22.9242 C   0  0  0  0  0  0  0  0  0  0  0  0
    6.4452   -0.1472   19.6975 C   0  0  0  0  0  0  0  0  0  0  0  0
    3.8974    1.9290   21.5048 C   0  0  0  0  0  0  0  0  0  0  0  0
   12.3697   -1.3298   22.2224 C   0  0  0  0  0  0  0  0  0  0  0  0
    8.2504    0.0168   21.4265 C   0  0  0  0  0  0  0  0  0  0  0  0
    9.9496    0.5589   24.9527 C   0  0  0  0  0  0  0  0  0  0  0  0
    5.0345    2.4974   27.8576 C   0  0  0  0  0  0  0  0  0  0  0  0
    4.8968    3.2168   26.5484 C   0  0  0  0  0  0  0  0  0  0  0  0
    8.0155   -2.1541   22.4325 C   0  0  0  0  0  0  0  0  0  0  0  0
    1.3643    3.1994   23.4261 C   0  0  0  0  0  0  0  0  0  0  0  0
    1.9003    0.8258   24.0890 C   0  0  0  0  0  0  0  0  0  0  0  0
    6.9880   -1.9367   21.3575 C   0  0  0  0  0  0  0  0  0  0  0  0
    7.8737   -0.1194   23.8825 C   0  0  0  0  0  0  0  0  0  0  0  0
   -0.0865    2.9730   23.8176 C   0  0  0  0  0  0  0  0  0  0  0  0
    0.4461    0.6145   24.4770 C   0  0  0  0  0  0  0  0  0  0  0  0
    2.0455    1.8971   23.0079 C   0  0  0  0  0  0  0  0  0  0  0  0
    6.2729    2.8850   27.0810 C   0  0  0  0  0  0  0  0  0  0  0  0
    8.6253   -0.7606   22.6923 C   0  0  3  0  0  0  0  0  0  0  0  0
    7.0560    1.7877   26.3958 C   0  0  0  0  0  0  0  0  0  0  0  0
    7.6954    4.8525   28.0121 N   0  0  0  0  0  0  0  0  0  0  0  0
    6.3072    0.3768   17.3417 N   0  0  0  0  0  0  0  0  0  0  0  0
    7.2305   -0.6898   20.7785 N   0  0  0  0  0  0  0  0  0  0  0  0
    8.6625    1.0133   24.4989 N   0  0  3  0  0  0  0  0  0  0  0  0
   -0.1501    1.9239   24.8798 N   0  3  0  0  0  0  0  0  0  0  0  0
    8.7514    1.0901   21.1243 O   0  0  0  0  0  0  0  0  0  0  0  0
    6.9865    2.7904   23.9840 O   0  0  0  0  0  0  0  0  0  0  0  0
    8.9572    3.3243   25.4729 O   0  0  0  0  0  0  0  0  0  0  0  0
    3.4243    2.1582   22.7713 O   0  0  0  0  0  0  0  0  0  0  0  0
    7.9493    2.4047   24.9925 S   0  0  0  0  0  0  0  0  0  0  0  0
   13.4297   -2.1462   21.1126 Cl  0  0  0  0  0  0  0  0  0  0  0  0
    3.3418    2.9747   18.3367 H   0  0  0  0  0  0  0  0  0  0  0  0
   12.5046    0.5852   24.9818 H   0  0  0  0  0  0  0  0  0  0  0  0
    2.5418    3.3504   20.6305 H   0  0  0  0  0  0  0  0  0  0  0  0
   13.9930   -0.5302   23.3869 H   0  0  0  0  0  0  0  0  0  0  0  0
    5.3175    0.4856   22.1531 H   0  0  0  0  0  0  0  0  0  0  0  0
   10.6139   -2.0326   21.2341 H   0  0  0  0  0  0  0  0  0  0  0  0
    4.9141    1.7513   16.7475 H   0  0  0  0  0  0  0  0  0  0  0  0
    7.6459   -0.9759   18.1036 H   0  0  0  0  0  0  0  0  0  0  0  0
    9.7590   -0.1307   25.8193 H   0  0  0  0  0  0  0  0  0  0  0  0
   10.4971    1.4368   25.3930 H   0  0  0  0  0  0  0  0  0  0  0  0
    4.7871    3.0452   28.7599 H   0  0  0  0  0  0  0  0  0  0  0  0
    4.7488    1.4523   27.8896 H   0  0  0  0  0  0  0  0  0  0  0  0
    4.5178    2.6535   25.7034 H   0  0  0  0  0  0  0  0  0  0  0  0
    4.5563    4.2457   26.5749 H   0  0  0  0  0  0  0  0  0  0  0  0
    7.5139   -2.5724   23.3172 H   0  0  0  0  0  0  0  0  0  0  0  0
    8.7710   -2.8991   22.1377 H   0  0  0  0  0  0  0  0  0  0  0  0
    1.4222    3.9254   22.6062 H   0  0  0  0  0  0  0  0  0  0  0  0
    1.9132    3.6540   24.2615 H   0  0  0  0  0  0  0  0  0  0  0  0
    2.4902    1.1065   24.9715 H   0  0  0  0  0  0  0  0  0  0  0  0
    2.3331   -0.1175   23.7347 H   0  0  0  0  0  0  0  0  0  0  0  0
    7.0576   -2.7256   20.5712 H   0  0  0  0  0  0  0  0  0  0  0  0
    5.9526   -1.9955   21.7714 H   0  0  0  0  0  0  0  0  0  0  0  0
    6.8959    0.2848   23.5662 H   0  0  0  0  0  0  0  0  0  0  0  0
    7.6721   -0.8632   24.6716 H   0  0  0  0  0  0  0  0  0  0  0  0
   -0.5367    3.8782   24.2351 H   0  0  0  0  0  0  0  0  0  0  0  0
   -0.6917    2.6221   22.9754 H   0  0  0  0  0  0  0  0  0  0  0  0
   -0.1506    0.2267   23.6449 H   0  0  0  0  0  0  0  0  0  0  0  0
    0.3516   -0.0576   25.3348 H   0  0  0  0  0  0  0  0  0  0  0  0
    1.6046    1.5406   22.0689 H   0  0  0  0  0  0  0  0  0  0  0  0
    6.3903    0.9996   26.0331 H   0  0  0  0  0  0  0  0  0  0  0  0
    7.7894    1.3466   27.0764 H   0  0  0  0  0  0  0  0  0  0  0  0
    0.3208    2.2676   25.7286 H   0  0  0  0  0  0  0  0  0  0  0  0
   -1.1326    1.7774   25.1490 H   0  0  0  0  0  0  0  0  0  0  0  0
  1 29  1  0  0  0  0
  1 32  3  0  0  0  0
  2  4  2  0  0  0  0
  2 10  1  0  0  0  0
  3  5  2  0  0  0  0
  3 12  1  0  0  0  0
  4 15  1  0  0  0  0
  5 16  1  0  0  0  0
  6 11  1  0  0  0  0
  6 15  2  0  0  0  0
  7 13  1  0  0  0  0
  7 16  2  0  0  0  0
  8 10  2  0  0  0  0
  8 33  1  0  0  0  0
  9 14  1  0  0  0  0
  9 33  2  0  0  0  0
 10 11  1  0  0  0  0
 11 14  2  0  0  0  0
 12 13  2  0  0  0  0
 12 18  1  0  0  0  0
 13 30  1  0  0  0  0
 14 34  1  0  0  0  0
 15 40  1  0  0  0  0
 16 42  1  0  0  0  0
 17 30  1  0  0  0  0
 17 34  1  0  0  0  0
 17 37  2  0  0  0  0
 18 35  1  0  0  0  0
 19 20  1  0  0  0  0
 19 29  1  0  0  0  0
 20 29  1  0  0  0  0
 21 24  1  0  0  0  0
 21 30  1  0  0  0  0
 22 26  1  0  0  0  0
 22 28  1  0  0  0  0
 23 27  1  0  0  0  0
 23 28  1  0  0  0  0
 24 34  1  0  0  0  0
 25 30  1  0  0  0  0
 25 35  1  0  0  0  0
 26 36  1  0  0  0  0
 27 36  1  0  0  0  0
 28 40  1  0  0  0  0
 29 31  1  0  0  0  0
 31 41  1  0  0  0  0
 35 41  1  0  0  0  0
 38 41  2  0  0  0  0
 39 41  2  0  0  0  0
  2 43  1  0  0  0  0
  3 44  1  0  0  0  0
  4 45  1  0  0  0  0
  5 46  1  0  0  0  0
  6 47  1  0  0  0  0
  7 48  1  0  0  0  0
  8 49  1  0  0  0  0
  9 50  1  0  0  0  0
 18 51  1  0  0  0  0
 18 52  1  0  0  0  0
 19 53  1  0  0  0  0
 19 54  1  0  0  0  0
 20 55  1  0  0  0  0
 20 56  1  0  0  0  0
 21 57  1  0  0  0  0
 21 58  1  0  0  0  0
 22 59  1  0  0  0  0
 22 60  1  0  0  0  0
 23 61  1  0  0  0  0
 23 62  1  0  0  0  0
 24 63  1  0  0  0  0
 24 64  1  0  0  0  0
 25 65  1  0  0  0  0
 25 66  1  0  0  0  0
 26 67  1  0  0  0  0
 26 68  1  0  0  0  0
 27 69  1  0  0  0  0
 27 70  1  0  0  0  0
 28 71  1  0  0  0  0
 31 72  1  0  0  0  0
 31 73  1  0  0  0  0
 36 74  1  0  0  0  0
 36 75  1  0  0  0  0
M  CHG  1  36   1
M  END
> <scaffold>
tetrahydroisoquinoline-5spiro-isoquinoline

> <compound>
EDJ-MED-ee81482e-4

> <compound_smiles>
c1cc2cncc(c2cc1OC3CCNCC3)N4CCC5(C4=O)CN(Cc6c5cc(cc6)Cl)S(=O)(=O)CC7(CC7)C#N

> <enantiomer_smiles>
c1cc2cncc(c2cc1OC3CCNCC3)N4CC[C@]5(C4=O)C[N@](Cc6c5cc(cc6)Cl)S(=O)(=O)CC7(CC7)C#N

> <clash_score>
0

> <docking_score>
3.4028234663852886e+38

> <overlap_score>
0.9718940854072571

> <MMFF_internal_energy>
119.51042042620284

> <docked_smiles>
c1cc2cncc(c2cc1OC3CC[NH2+]CC3)N4CC[C@]5(C4=O)C[N@@](Cc6c5cc(cc6)Cl)S(=O)(=O)CC7(CC7)C#N

$$$$
EDJ-MED-468565e0-5_1
  -OEChem-01042202313D

 74 80  0     1  0  0  0  0  0999 V2000
    5.2967    3.5514   26.2583 C   0  0  0  0  0  0  0  0  0  0  0  0
    3.7877    2.4205   19.1658 C   0  0  0  0  0  0  0  0  0  0  0  0
   12.0781    0.0316   24.1532 C   0  0  0  0  0  0  0  0  0  0  0  0
    3.3444    2.6278   20.4409 C   0  0  0  0  0  0  0  0  0  0  0  0
   12.9147   -0.6032   23.2559 C   0  0  0  0  0  0  0  0  0  0  0  0
    4.8986    1.0232   21.2985 C   0  0  0  0  0  0  0  0  0  0  0  0
   11.0005   -1.4332   22.0435 C   0  0  0  0  0  0  0  0  0  0  0  0
    5.3288    1.2339   17.6062 C   0  0  0  0  0  0  0  0  0  0  0  0
    6.8449   -0.2893   18.3747 C   0  0  0  0  0  0  0  0  0  0  0  0
    4.8238    1.4906   18.9051 C   0  0  0  0  0  0  0  0  0  0  0  0
    5.3995    0.7732   19.9944 C   0  0  0  0  0  0  0  0  0  0  0  0
   10.7056   -0.0626   23.9890 C   0  0  0  0  0  0  0  0  0  0  0  0
   10.1421   -0.7766   22.9242 C   0  0  0  0  0  0  0  0  0  0  0  0
    6.4452   -0.1472   19.6975 C   0  0  0  0  0  0  0  0  0  0  0  0
    3.8974    1.9290   21.5048 C   0  0  0  0  0  0  0  0  0  0  0  0
   12.3697   -1.3298   22.2224 C   0  0  0  0  0  0  0  0  0  0  0  0
    8.2504    0.0168   21.4265 C   0  0  0  0  0  0  0  0  0  0  0  0
    9.9496    0.5589   24.9527 C   0  0  0  0  0  0  0  0  0  0  0  0
    6.9792    3.7161   28.1285 C   0  0  0  0  0  0  0  0  0  0  0  0
    5.9429    2.7153   28.5471 C   0  0  0  0  0  0  0  0  0  0  0  0
    8.0155   -2.1541   22.4325 C   0  0  0  0  0  0  0  0  0  0  0  0
    6.9880   -1.9367   21.3575 C   0  0  0  0  0  0  0  0  0  0  0  0
    7.8737   -0.1194   23.8825 C   0  0  0  0  0  0  0  0  0  0  0  0
    1.8038   -1.1450   24.9762 C   0  0  0  0  0  0  0  0  0  0  0  0
    1.2100    0.1105   26.5287 C   0  0  0  0  0  0  0  0  0  0  0  0
    6.2729    2.8851   27.0810 C   0  0  0  0  0  0  0  0  0  0  0  0
    8.6253   -0.7606   22.6923 C   0  0  3  0  0  0  0  0  0  0  0  0
    1.0268   -1.4017   26.2841 C   0  0  0  0  0  0  0  0  0  0  0  0
    7.0560    1.7877   26.3958 C   0  0  0  0  0  0  0  0  0  0  0  0
    2.3376    1.1942   24.6861 C   0  0  0  0  0  0  0  0  0  0  0  0
    3.4807    1.0726   23.6950 C   0  0  0  0  0  0  0  0  0  0  0  0
    4.5102    4.0883   25.5954 N   0  0  0  0  0  0  0  0  0  0  0  0
    6.3072    0.3768   17.3417 N   0  0  0  0  0  0  0  0  0  0  0  0
    7.2305   -0.6898   20.7785 N   0  0  0  0  0  0  0  0  0  0  0  0
    8.6625    1.0133   24.4989 N   0  0  3  0  0  0  0  0  0  0  0  0
    2.3696    0.0665   25.6103 N   0  0  0  0  0  0  0  0  0  0  0  0
    8.7514    1.0901   21.1243 O   0  0  0  0  0  0  0  0  0  0  0  0
    6.9865    2.7904   23.9840 O   0  0  0  0  0  0  0  0  0  0  0  0
    8.9572    3.3243   25.4729 O   0  0  0  0  0  0  0  0  0  0  0  0
    3.4243    2.1582   22.7713 O   0  0  0  0  0  0  0  0  0  0  0  0
   -0.2457   -1.8319   26.1453 F   0  0  0  0  0  0  0  0  0  0  0  0
    1.6297   -2.2198   27.1765 F   0  0  0  0  0  0  0  0  0  0  0  0
    7.9493    2.4047   24.9925 S   0  0  0  0  0  0  0  0  0  0  0  0
   13.4297   -2.1462   21.1126 Cl  0  0  0  0  0  0  0  0  0  0  0  0
    3.3418    2.9747   18.3367 H   0  0  0  0  0  0  0  0  0  0  0  0
   12.5046    0.5852   24.9818 H   0  0  0  0  0  0  0  0  0  0  0  0
    2.5418    3.3504   20.6305 H   0  0  0  0  0  0  0  0  0  0  0  0
   13.9930   -0.5302   23.3869 H   0  0  0  0  0  0  0  0  0  0  0  0
    5.3175    0.4856   22.1531 H   0  0  0  0  0  0  0  0  0  0  0  0
   10.6139   -2.0326   21.2341 H   0  0  0  0  0  0  0  0  0  0  0  0
    4.9141    1.7513   16.7475 H   0  0  0  0  0  0  0  0  0  0  0  0
    7.6459   -0.9759   18.1036 H   0  0  0  0  0  0  0  0  0  0  0  0
    9.7590   -0.1307   25.8193 H   0  0  0  0  0  0  0  0  0  0  0  0
   10.4971    1.4368   25.3930 H   0  0  0  0  0  0  0  0  0  0  0  0
    6.7291    4.7669   28.2222 H   0  0  0  0  0  0  0  0  0  0  0  0
    8.0151    3.4923   28.3559 H   0  0  0  0  0  0  0  0  0  0  0  0
    6.2848    1.8214   29.0559 H   0  0  0  0  0  0  0  0  0  0  0  0
    4.9999    3.0968   28.9218 H   0  0  0  0  0  0  0  0  0  0  0  0
    7.5139   -2.5724   23.3172 H   0  0  0  0  0  0  0  0  0  0  0  0
    8.7710   -2.8991   22.1377 H   0  0  0  0  0  0  0  0  0  0  0  0
    7.0576   -2.7256   20.5712 H   0  0  0  0  0  0  0  0  0  0  0  0
    5.9526   -1.9955   21.7714 H   0  0  0  0  0  0  0  0  0  0  0  0
    6.8959    0.2848   23.5662 H   0  0  0  0  0  0  0  0  0  0  0  0
    7.6721   -0.8632   24.6716 H   0  0  0  0  0  0  0  0  0  0  0  0
    2.5521   -1.9042   24.7264 H   0  0  0  0  0  0  0  0  0  0  0  0
    1.1540   -0.9929   24.1041 H   0  0  0  0  0  0  0  0  0  0  0  0
    0.3476    0.7122   26.2127 H   0  0  0  0  0  0  0  0  0  0  0  0
    1.4696    0.3845   27.5565 H   0  0  0  0  0  0  0  0  0  0  0  0
    6.3903    0.9996   26.0331 H   0  0  0  0  0  0  0  0  0  0  0  0
    7.7894    1.3466   27.0764 H   0  0  0  0  0  0  0  0  0  0  0  0
    2.4143    2.1175   25.2690 H   0  0  0  0  0  0  0  0  0  0  0  0
    1.3767    1.1794   24.1630 H   0  0  0  0  0  0  0  0  0  0  0  0
    3.3874    0.1412   23.1278 H   0  0  0  0  0  0  0  0  0  0  0  0
    4.4530    1.0884   24.1980 H   0  0  0  0  0  0  0  0  0  0  0  0
  1 26  1  0  0  0  0
  1 32  3  0  0  0  0
  2  4  2  0  0  0  0
  2 10  1  0  0  0  0
  3  5  2  0  0  0  0
  3 12  1  0  0  0  0
  4 15  1  0  0  0  0
  5 16  1  0  0  0  0
  6 11  1  0  0  0  0
  6 15  2  0  0  0  0
  7 13  1  0  0  0  0
  7 16  2  0  0  0  0
  8 10  2  0  0  0  0
  8 33  1  0  0  0  0
  9 14  1  0  0  0  0
  9 33  2  0  0  0  0
 10 11  1  0  0  0  0
 11 14  2  0  0  0  0
 12 13  2  0  0  0  0
 12 18  1  0  0  0  0
 13 27  1  0  0  0  0
 14 34  1  0  0  0  0
 15 40  1  0  0  0  0
 16 44  1  0  0  0  0
 17 27  1  0  0  0  0
 17 34  1  0  0  0  0
 17 37  2  0  0  0  0
 18 35  1  0  0  0  0
 19 20  1  0  0  0  0
 19 26  1  0  0  0  0
 20 26  1  0  0  0  0
 21 22  1  0  0  0  0
 21 27  1  0  0  0  0
 22 34  1  0  0  0  0
 23 27  1  0  0  0  0
 23 35  1  0  0  0  0
 24 28  1  0  0  0  0
 24 36  1  0  0  0  0
 25 28  1  0  0  0  0
 25 36  1  0  0  0  0
 26 29  1  0  0  0  0
 28 41  1  0  0  0  0
 28 42  1  0  0  0  0
 29 43  1  0  0  0  0
 30 31  1  0  0  0  0
 30 36  1  0  0  0  0
 31 40  1  0  0  0  0
 35 43  1  0  0  0  0
 38 43  2  0  0  0  0
 39 43  2  0  0  0  0
  2 45  1  0  0  0  0
  3 46  1  0  0  0  0
  4 47  1  0  0  0  0
  5 48  1  0  0  0  0
  6 49  1  0  0  0  0
  7 50  1  0  0  0  0
  8 51  1  0  0  0  0
  9 52  1  0  0  0  0
 18 53  1  0  0  0  0
 18 54  1  0  0  0  0
 19 55  1  0  0  0  0
 19 56  1  0  0  0  0
 20 57  1  0  0  0  0
 20 58  1  0  0  0  0
 21 59  1  0  0  0  0
 21 60  1  0  0  0  0
 22 61  1  0  0  0  0
 22 62  1  0  0  0  0
 23 63  1  0  0  0  0
 23 64  1  0  0  0  0
 24 65  1  0  0  0  0
 24 66  1  0  0  0  0
 25 67  1  0  0  0  0
 25 68  1  0  0  0  0
 29 69  1  0  0  0  0
 29 70  1  0  0  0  0
 30 71  1  0  0  0  0
 30 72  1  0  0  0  0
 31 73  1  0  0  0  0
 31 74  1  0  0  0  0
M  END
> <scaffold>
tetrahydroisoquinoline-5spiro-isoquinoline

> <compound>
EDJ-MED-468565e0-5

> <compound_smiles>
c1cc2cncc(c2cc1OCCN3CC(C3)(F)F)N4CCC5(C4=O)CN(Cc6c5cc(cc6)Cl)S(=O)(=O)CC7(CC7)C#N

> <enantiomer_smiles>
c1cc2cncc(c2cc1OCCN3CC(C3)(F)F)N4CC[C@]5(C4=O)C[N@](Cc6c5cc(cc6)Cl)S(=O)(=O)CC7(CC7)C#N

> <clash_score>
0

> <docking_score>
3.4028234663852886e+38

> <overlap_score>
0.9681284427642822

> <MMFF_internal_energy>
180.33620328191168

> <docked_smiles>
c1cc2cncc(c2cc1OCCN3CC(C3)(F)F)N4CC[C@]5(C4=O)C[N@@](Cc6c5cc(cc6)Cl)S(=O)(=O)CC7(CC7)C#N

$$$$
JOH-MSK-949975c8-1_2
  -OEChem-01042202313D

 73 79  0     1  0  0  0  0  0999 V2000
    6.6029    2.6038   28.4528 C   0  0  0  0  0  0  0  0  0  0  0  0
    3.3444    2.6278   20.4409 C   0  0  0  0  0  0  0  0  0  0  0  0
    3.8974    1.9290   21.5048 C   0  0  0  0  0  0  0  0  0  0  0  0
    3.7877    2.4205   19.1658 C   0  0  0  0  0  0  0  0  0  0  0  0
    4.8986    1.0232   21.2985 C   0  0  0  0  0  0  0  0  0  0  0  0
   12.0781    0.0316   24.1532 C   0  0  0  0  0  0  0  0  0  0  0  0
   12.9147   -0.6032   23.2559 C   0  0  0  0  0  0  0  0  0  0  0  0
   11.0005   -1.4332   22.0435 C   0  0  0  0  0  0  0  0  0  0  0  0
    5.3288    1.2339   17.6062 C   0  0  0  0  0  0  0  0  0  0  0  0
    6.8449   -0.2893   18.3747 C   0  0  0  0  0  0  0  0  0  0  0  0
    4.8238    1.4906   18.9051 C   0  0  0  0  0  0  0  0  0  0  0  0
    5.3995    0.7732   19.9944 C   0  0  0  0  0  0  0  0  0  0  0  0
   10.7056   -0.0626   23.9890 C   0  0  0  0  0  0  0  0  0  0  0  0
   10.1421   -0.7766   22.9242 C   0  0  0  0  0  0  0  0  0  0  0  0
    6.4452   -0.1472   19.6975 C   0  0  0  0  0  0  0  0  0  0  0  0
   12.3697   -1.3298   22.2224 C   0  0  0  0  0  0  0  0  0  0  0  0
   10.4829   -6.4588   21.0550 C   0  0  0  0  0  0  0  0  0  0  0  0
    8.2504    0.0168   21.4265 C   0  0  0  0  0  0  0  0  0  0  0  0
    6.9880   -1.9367   21.3575 C   0  0  0  0  0  0  0  0  0  0  0  0
    9.9496    0.5589   24.9527 C   0  0  0  0  0  0  0  0  0  0  0  0
   10.6880   -6.2403   22.5394 C   0  0  0  0  0  0  0  0  0  0  0  0
    9.5828   -5.4430   23.2133 C   0  0  0  0  0  0  0  0  0  0  0  0
    5.8248    0.2168   28.6820 C   0  0  0  0  0  0  0  0  0  0  0  0
    5.0943    0.8145   27.5159 C   0  0  0  0  0  0  0  0  0  0  0  0
    8.8625   -4.5337   21.0206 C   0  0  0  0  0  0  0  0  0  0  0  0
    7.8737   -0.1194   23.8825 C   0  0  0  0  0  0  0  0  0  0  0  0
    9.3123   -4.1606   22.4294 C   0  0  1  0  0  0  0  0  0  0  0  0
    6.4861    1.2980   27.8570 C   0  0  0  0  0  0  0  0  0  0  0  0
    8.6253   -0.7606   22.6923 C   0  0  3  0  0  0  0  0  0  0  0  0
    8.2605   -3.3008   23.1249 C   0  0  0  0  0  0  0  0  0  0  0  0
    7.6222    0.9003   26.9415 C   0  0  0  0  0  0  0  0  0  0  0  0
    6.6970    3.6558   28.9330 N   0  0  0  0  0  0  0  0  0  0  0  0
    6.3072    0.3768   17.3417 N   0  0  0  0  0  0  0  0  0  0  0  0
    9.7040   -5.5366   20.3933 N   0  0  0  0  0  0  0  0  0  0  0  0
    7.2305   -0.6898   20.7785 N   0  0  0  0  0  0  0  0  0  0  0  0
    8.0155   -2.1541   22.4325 N   0  0  0  0  0  0  0  0  0  0  0  0
    8.6625    1.0133   24.4989 N   0  0  3  0  0  0  0  0  0  0  0  0
   11.0599   -7.3775   20.4703 O   0  0  0  0  0  0  0  0  0  0  0  0
    8.8045    1.0418   21.0871 O   0  0  0  0  0  0  0  0  0  0  0  0
    6.1139   -2.7504   21.1411 O   0  0  0  0  0  0  0  0  0  0  0  0
    6.4474    2.2390   25.0297 O   0  0  0  0  0  0  0  0  0  0  0  0
    8.6251    3.1093   25.9709 O   0  0  0  0  0  0  0  0  0  0  0  0
    7.7711    2.0134   25.5679 S   0  0  0  0  0  0  0  0  0  0  0  0
   13.4279   -2.1414   21.1075 Cl  0  0  0  0  0  0  0  0  0  0  0  0
    2.5443    3.3508   20.6368 H   0  0  0  0  0  0  0  0  0  0  0  0
    3.5189    2.1137   22.5166 H   0  0  0  0  0  0  0  0  0  0  0  0
    3.3421    2.9744   18.3363 H   0  0  0  0  0  0  0  0  0  0  0  0
    5.3131    0.4893   22.1569 H   0  0  0  0  0  0  0  0  0  0  0  0
   12.5037    0.6006   24.9720 H   0  0  0  0  0  0  0  0  0  0  0  0
   13.9925   -0.5155   23.3770 H   0  0  0  0  0  0  0  0  0  0  0  0
   10.6064   -2.0209   21.2257 H   0  0  0  0  0  0  0  0  0  0  0  0
    4.9151    1.7511   16.7471 H   0  0  0  0  0  0  0  0  0  0  0  0
    7.6455   -0.9765   18.1038 H   0  0  0  0  0  0  0  0  0  0  0  0
    9.7894   -0.1169   25.8341 H   0  0  0  0  0  0  0  0  0  0  0  0
   10.4831    1.4577   25.3596 H   0  0  0  0  0  0  0  0  0  0  0  0
   10.7750   -7.2196   23.0233 H   0  0  0  0  0  0  0  0  0  0  0  0
   11.6472   -5.7228   22.6597 H   0  0  0  0  0  0  0  0  0  0  0  0
    8.6703   -6.0503   23.2690 H   0  0  0  0  0  0  0  0  0  0  0  0
    9.8779   -5.2092   24.2430 H   0  0  0  0  0  0  0  0  0  0  0  0
    5.4670    0.4592   29.6763 H   0  0  0  0  0  0  0  0  0  0  0  0
    6.1817   -0.8019   28.5831 H   0  0  0  0  0  0  0  0  0  0  0  0
    4.9610    0.1955   26.6361 H   0  0  0  0  0  0  0  0  0  0  0  0
    4.2471    1.4560   27.7303 H   0  0  0  0  0  0  0  0  0  0  0  0
    7.8470   -4.9468   21.0293 H   0  0  0  0  0  0  0  0  0  0  0  0
    8.8562   -3.6546   20.3674 H   0  0  0  0  0  0  0  0  0  0  0  0
    6.8963    0.2740   23.5515 H   0  0  0  0  0  0  0  0  0  0  0  0
    7.6768   -0.8555   24.6818 H   0  0  0  0  0  0  0  0  0  0  0  0
   10.2321   -3.5685   22.3716 H   0  0  0  0  0  0  0  0  0  0  0  0
    7.3242   -3.8728   23.2041 H   0  0  0  0  0  0  0  0  0  0  0  0
    8.6179   -3.0413   24.1324 H   0  0  0  0  0  0  0  0  0  0  0  0
    7.4613   -0.1000   26.5298 H   0  0  0  0  0  0  0  0  0  0  0  0
    8.5772    0.9151   27.4736 H   0  0  0  0  0  0  0  0  0  0  0  0
    9.7194   -5.5598   19.3784 H   0  0  0  0  0  0  0  0  0  0  0  0
  1 28  1  0  0  0  0
  1 32  3  0  0  0  0
  2  3  2  0  0  0  0
  2  4  1  0  0  0  0
  3  5  1  0  0  0  0
  4 11  2  0  0  0  0
  5 12  2  0  0  0  0
  6  7  2  0  0  0  0
  6 13  1  0  0  0  0
  7 16  1  0  0  0  0
  8 14  1  0  0  0  0
  8 16  2  0  0  0  0
  9 11  1  0  0  0  0
  9 33  2  0  0  0  0
 10 15  2  0  0  0  0
 10 33  1  0  0  0  0
 11 12  1  0  0  0  0
 12 15  1  0  0  0  0
 13 14  2  0  0  0  0
 13 20  1  0  0  0  0
 14 29  1  0  0  0  0
 15 35  1  0  0  0  0
 16 44  1  0  0  0  0
 17 21  1  0  0  0  0
 17 34  1  0  0  0  0
 17 38  2  0  0  0  0
 18 29  1  0  0  0  0
 18 35  1  0  0  0  0
 18 39  2  0  0  0  0
 19 35  1  0  0  0  0
 19 36  1  0  0  0  0
 19 40  2  0  0  0  0
 20 37  1  0  0  0  0
 21 22  1  0  0  0  0
 22 27  1  0  0  0  0
 23 24  1  0  0  0  0
 23 28  1  0  0  0  0
 24 28  1  0  0  0  0
 25 27  1  0  0  0  0
 25 34  1  0  0  0  0
 26 29  1  0  0  0  0
 26 37  1  0  0  0  0
 27 30  1  6  0  0  0
 28 31  1  0  0  0  0
 29 36  1  0  0  0  0
 30 36  1  0  0  0  0
 31 43  1  0  0  0  0
 37 43  1  0  0  0  0
 41 43  2  0  0  0  0
 42 43  2  0  0  0  0
  2 45  1  0  0  0  0
  3 46  1  0  0  0  0
  4 47  1  0  0  0  0
  5 48  1  0  0  0  0
  6 49  1  0  0  0  0
  7 50  1  0  0  0  0
  8 51  1  0  0  0  0
  9 52  1  0  0  0  0
 10 53  1  0  0  0  0
 20 54  1  0  0  0  0
 20 55  1  0  0  0  0
 21 56  1  0  0  0  0
 21 57  1  0  0  0  0
 22 58  1  0  0  0  0
 22 59  1  0  0  0  0
 23 60  1  0  0  0  0
 23 61  1  0  0  0  0
 24 62  1  0  0  0  0
 24 63  1  0  0  0  0
 25 64  1  0  0  0  0
 25 65  1  0  0  0  0
 26 66  1  0  0  0  0
 26 67  1  0  0  0  0
 27 68  1  0  0  0  0
 30 69  1  0  0  0  0
 30 70  1  0  0  0  0
 31 71  1  0  0  0  0
 31 72  1  0  0  0  0
 34 73  1  0  0  0  0
M  END
> <scaffold>
tetrahydroisoquinoline-5spiro-isoquinoline

> <compound>
JOH-MSK-949975c8-1

> <compound_smiles>
c1ccc2c(c1)cncc2N3C(=O)C4(CN(Cc5c4cc(cc5)Cl)S(=O)(=O)CC6(CC6)C#N)N(C3=O)CC7CCC(=O)NC7

> <enantiomer_smiles>
c1ccc2c(c1)cncc2N3C(=O)[C@@]4(C[N@@](Cc5c4cc(cc5)Cl)S(=O)(=O)CC6(CC6)C#N)N(C3=O)C[C@H]7CCC(=O)NC7

> <clash_score>
9.989372237875315

> <docking_score>
3.4028234663852886e+38

> <overlap_score>
1.0

> <MMFF_internal_energy>
88.77494772915955

> <docked_smiles>
c1ccc2c(c1)cncc2N3C(=O)[C@@]4(C[N@](Cc5c4cc(cc5)Cl)S(=O)(=O)CC6(CC6)C#N)N(C3=O)C[C@H]7CCC(=O)NC7

$$$$
MAT-POS-40ad851a-3_1
  -OEChem-01042202313D

 80 85  0     1  0  0  0  0  0999 V2000
    5.2967    3.5514   26.2583 C   0  0  0  0  0  0  0  0  0  0  0  0
    3.7877    2.4205   19.1658 C   0  0  0  0  0  0  0  0  0  0  0  0
   12.0781    0.0316   24.1532 C   0  0  0  0  0  0  0  0  0  0  0  0
    3.3444    2.6278   20.4409 C   0  0  0  0  0  0  0  0  0  0  0  0
   12.9147   -0.6032   23.2559 C   0  0  0  0  0  0  0  0  0  0  0  0
    4.8986    1.0232   21.2985 C   0  0  0  0  0  0  0  0  0  0  0  0
   11.0005   -1.4332   22.0435 C   0  0  0  0  0  0  0  0  0  0  0  0
    5.3288    1.2339   17.6062 C   0  0  0  0  0  0  0  0  0  0  0  0
    6.8449   -0.2893   18.3747 C   0  0  0  0  0  0  0  0  0  0  0  0
    4.8238    1.4906   18.9051 C   0  0  0  0  0  0  0  0  0  0  0  0
    5.3995    0.7732   19.9944 C   0  0  0  0  0  0  0  0  0  0  0  0
   10.7056   -0.0626   23.9890 C   0  0  0  0  0  0  0  0  0  0  0  0
   10.1421   -0.7766   22.9242 C   0  0  0  0  0  0  0  0  0  0  0  0
    6.4452   -0.1472   19.6975 C   0  0  0  0  0  0  0  0  0  0  0  0
    3.8974    1.9290   21.5048 C   0  0  0  0  0  0  0  0  0  0  0  0
   12.3697   -1.3298   22.2224 C   0  0  0  0  0  0  0  0  0  0  0  0
    8.2504    0.0168   21.4265 C   0  0  0  0  0  0  0  0  0  0  0  0
    9.9496    0.5589   24.9527 C   0  0  0  0  0  0  0  0  0  0  0  0
    6.9792    3.7161   28.1285 C   0  0  0  0  0  0  0  0  0  0  0  0
    5.9429    2.7153   28.5471 C   0  0  0  0  0  0  0  0  0  0  0  0
    8.0155   -2.1541   22.4325 C   0  0  0  0  0  0  0  0  0  0  0  0
    6.9880   -1.9367   21.3575 C   0  0  0  0  0  0  0  0  0  0  0  0
    7.8737   -0.1194   23.8825 C   0  0  0  0  0  0  0  0  0  0  0  0
    6.2729    2.8850   27.0810 C   0  0  0  0  0  0  0  0  0  0  0  0
    8.6253   -0.7606   22.6923 C   0  0  3  0  0  0  0  0  0  0  0  0
   -0.6404   -0.2511   22.8452 C   0  0  0  0  0  0  0  0  0  0  0  0
   -0.2752    1.1461   26.0571 C   0  0  0  0  0  0  0  0  0  0  0  0
    7.0560    1.7877   26.3958 C   0  0  0  0  0  0  0  0  0  0  0  0
    0.6594   -0.2777   23.6192 C   0  0  0  0  0  0  0  0  0  0  0  0
   -0.0576    1.8340   24.7271 C   0  0  0  0  0  0  0  0  0  0  0  0
    2.3501    1.1994   24.6970 C   0  0  0  0  0  0  0  0  0  0  0  0
    3.4807    1.0726   23.6950 C   0  0  0  0  0  0  0  0  0  0  0  0
    4.5102    4.0883   25.5954 N   0  0  0  0  0  0  0  0  0  0  0  0
    6.3072    0.3768   17.3417 N   0  0  0  0  0  0  0  0  0  0  0  0
    7.2305   -0.6898   20.7785 N   0  0  0  0  0  0  0  0  0  0  0  0
    8.6625    1.0133   24.4989 N   0  0  3  0  0  0  0  0  0  0  0  0
    1.0511    1.1336   23.9811 N   0  3  0  0  0  0  0  0  0  0  0  0
    8.7514    1.0901   21.1243 O   0  0  0  0  0  0  0  0  0  0  0  0
    6.9865    2.7904   23.9840 O   0  0  0  0  0  0  0  0  0  0  0  0
    8.9572    3.3243   25.4729 O   0  0  0  0  0  0  0  0  0  0  0  0
    3.4243    2.1582   22.7713 O   0  0  0  0  0  0  0  0  0  0  0  0
    7.9493    2.4047   24.9925 S   0  0  0  0  0  0  0  0  0  0  0  0
   13.4297   -2.1462   21.1126 Cl  0  0  0  0  0  0  0  0  0  0  0  0
    3.3418    2.9747   18.3367 H   0  0  0  0  0  0  0  0  0  0  0  0
   12.5046    0.5852   24.9818 H   0  0  0  0  0  0  0  0  0  0  0  0
    2.5418    3.3504   20.6305 H   0  0  0  0  0  0  0  0  0  0  0  0
   13.9930   -0.5302   23.3869 H   0  0  0  0  0  0  0  0  0  0  0  0
    5.3175    0.4856   22.1531 H   0  0  0  0  0  0  0  0  0  0  0  0
   10.6139   -2.0326   21.2341 H   0  0  0  0  0  0  0  0  0  0  0  0
    4.9141    1.7513   16.7475 H   0  0  0  0  0  0  0  0  0  0  0  0
    7.6459   -0.9759   18.1036 H   0  0  0  0  0  0  0  0  0  0  0  0
    9.7590   -0.1307   25.8193 H   0  0  0  0  0  0  0  0  0  0  0  0
   10.4971    1.4368   25.3930 H   0  0  0  0  0  0  0  0  0  0  0  0
    6.7291    4.7669   28.2222 H   0  0  0  0  0  0  0  0  0  0  0  0
    8.0151    3.4923   28.3559 H   0  0  0  0  0  0  0  0  0  0  0  0
    6.2848    1.8214   29.0559 H   0  0  0  0  0  0  0  0  0  0  0  0
    4.9999    3.0968   28.9218 H   0  0  0  0  0  0  0  0  0  0  0  0
    7.5139   -2.5724   23.3172 H   0  0  0  0  0  0  0  0  0  0  0  0
    8.7710   -2.8991   22.1377 H   0  0  0  0  0  0  0  0  0  0  0  0
    7.0576   -2.7256   20.5712 H   0  0  0  0  0  0  0  0  0  0  0  0
    5.9526   -1.9955   21.7714 H   0  0  0  0  0  0  0  0  0  0  0  0
    6.8959    0.2848   23.5662 H   0  0  0  0  0  0  0  0  0  0  0  0
    7.6721   -0.8632   24.6716 H   0  0  0  0  0  0  0  0  0  0  0  0
   -1.4394    0.1704   23.4628 H   0  0  0  0  0  0  0  0  0  0  0  0
   -0.5511    0.3621   21.9425 H   0  0  0  0  0  0  0  0  0  0  0  0
   -0.9421   -1.2596   22.5433 H   0  0  0  0  0  0  0  0  0  0  0  0
   -0.5814    0.1074   25.8997 H   0  0  0  0  0  0  0  0  0  0  0  0
    0.6420    1.1418   26.6551 H   0  0  0  0  0  0  0  0  0  0  0  0
   -1.0579    1.6455   26.6377 H   0  0  0  0  0  0  0  0  0  0  0  0
    6.3903    0.9996   26.0331 H   0  0  0  0  0  0  0  0  0  0  0  0
    7.7894    1.3466   27.0764 H   0  0  0  0  0  0  0  0  0  0  0  0
    1.4762   -0.6952   23.0240 H   0  0  0  0  0  0  0  0  0  0  0  0
    0.5612   -0.8339   24.5555 H   0  0  0  0  0  0  0  0  0  0  0  0
    0.2497    2.8754   24.8558 H   0  0  0  0  0  0  0  0  0  0  0  0
   -0.9495    1.7859   24.0963 H   0  0  0  0  0  0  0  0  0  0  0  0
    2.3668    2.1611   25.2176 H   0  0  0  0  0  0  0  0  0  0  0  0
    2.3536    0.3768   25.4169 H   0  0  0  0  0  0  0  0  0  0  0  0
    4.4435    1.1200   24.2132 H   0  0  0  0  0  0  0  0  0  0  0  0
    3.4258    0.1302   23.1404 H   0  0  0  0  0  0  0  0  0  0  0  0
    1.1584    1.6398   23.0857 H   0  0  0  0  0  0  0  0  0  0  0  0
  1 24  1  0  0  0  0
  1 33  3  0  0  0  0
  2  4  2  0  0  0  0
  2 10  1  0  0  0  0
  3  5  2  0  0  0  0
  3 12  1  0  0  0  0
  4 15  1  0  0  0  0
  5 16  1  0  0  0  0
  6 11  1  0  0  0  0
  6 15  2  0  0  0  0
  7 13  1  0  0  0  0
  7 16  2  0  0  0  0
  8 10  2  0  0  0  0
  8 34  1  0  0  0  0
  9 14  1  0  0  0  0
  9 34  2  0  0  0  0
 10 11  1  0  0  0  0
 11 14  2  0  0  0  0
 12 13  2  0  0  0  0
 12 18  1  0  0  0  0
 13 25  1  0  0  0  0
 14 35  1  0  0  0  0
 15 41  1  0  0  0  0
 16 43  1  0  0  0  0
 17 25  1  0  0  0  0
 17 35  1  0  0  0  0
 17 38  2  0  0  0  0
 18 36  1  0  0  0  0
 19 20  1  0  0  0  0
 19 24  1  0  0  0  0
 20 24  1  0  0  0  0
 21 22  1  0  0  0  0
 21 25  1  0  0  0  0
 22 35  1  0  0  0  0
 23 25  1  0  0  0  0
 23 36  1  0  0  0  0
 24 28  1  0  0  0  0
 26 29  1  0  0  0  0
 27 30  1  0  0  0  0
 28 42  1  0  0  0  0
 29 37  1  0  0  0  0
 30 37  1  0  0  0  0
 31 32  1  0  0  0  0
 31 37  1  0  0  0  0
 32 41  1  0  0  0  0
 36 42  1  0  0  0  0
 39 42  2  0  0  0  0
 40 42  2  0  0  0  0
  2 44  1  0  0  0  0
  3 45  1  0  0  0  0
  4 46  1  0  0  0  0
  5 47  1  0  0  0  0
  6 48  1  0  0  0  0
  7 49  1  0  0  0  0
  8 50  1  0  0  0  0
  9 51  1  0  0  0  0
 18 52  1  0  0  0  0
 18 53  1  0  0  0  0
 19 54  1  0  0  0  0
 19 55  1  0  0  0  0
 20 56  1  0  0  0  0
 20 57  1  0  0  0  0
 21 58  1  0  0  0  0
 21 59  1  0  0  0  0
 22 60  1  0  0  0  0
 22 61  1  0  0  0  0
 23 62  1  0  0  0  0
 23 63  1  0  0  0  0
 26 64  1  0  0  0  0
 26 65  1  0  0  0  0
 26 66  1  0  0  0  0
 27 67  1  0  0  0  0
 27 68  1  0  0  0  0
 27 69  1  0  0  0  0
 28 70  1  0  0  0  0
 28 71  1  0  0  0  0
 29 72  1  0  0  0  0
 29 73  1  0  0  0  0
 30 74  1  0  0  0  0
 30 75  1  0  0  0  0
 31 76  1  0  0  0  0
 31 77  1  0  0  0  0
 32 78  1  0  0  0  0
 32 79  1  0  0  0  0
 37 80  1  0  0  0  0
M  CHG  1  37   1
M  END
> <scaffold>
tetrahydroisoquinoline-5spiro-isoquinoline

> <compound>
MAT-POS-40ad851a-3

> <compound_smiles>
CCN(CC)CCOc1ccc2cncc(c2c1)N3CCC4(C3=O)CN(Cc5c4cc(cc5)Cl)S(=O)(=O)CC6(CC6)C#N

> <enantiomer_smiles>
CCN(CC)CCOc1ccc2cncc(c2c1)N3CC[C@]4(C3=O)C[N@@](Cc5c4cc(cc5)Cl)S(=O)(=O)CC6(CC6)C#N

> <clash_score>
0

> <docking_score>
3.4028234663852886e+38

> <overlap_score>
0.9710859656333923

> <MMFF_internal_energy>
152.5276407952782

> <docked_smiles>
CC[NH+](CC)CCOc1ccc2cncc(c2c1)N3CC[C@]4(C3=O)C[N@@](Cc5c4cc(cc5)Cl)S(=O)(=O)CC6(CC6)C#N

$$$$
EDJ-MED-dfa1d800-2_1
  -OEChem-01042202313D

 78 84  0     1  0  0  0  0  0999 V2000
    3.7877    2.4205   19.1658 C   0  0  0  0  0  0  0  0  0  0  0  0
   12.0781    0.0316   24.1532 C   0  0  0  0  0  0  0  0  0  0  0  0
    3.3444    2.6278   20.4409 C   0  0  0  0  0  0  0  0  0  0  0  0
   12.9147   -0.6032   23.2559 C   0  0  0  0  0  0  0  0  0  0  0  0
    4.8986    1.0232   21.2985 C   0  0  0  0  0  0  0  0  0  0  0  0
   11.0005   -1.4332   22.0435 C   0  0  0  0  0  0  0  0  0  0  0  0
    5.3288    1.2339   17.6062 C   0  0  0  0  0  0  0  0  0  0  0  0
    6.8449   -0.2893   18.3747 C   0  0  0  0  0  0  0  0  0  0  0  0
    4.8238    1.4906   18.9051 C   0  0  0  0  0  0  0  0  0  0  0  0
    5.3995    0.7732   19.9944 C   0  0  0  0  0  0  0  0  0  0  0  0
   10.7056   -0.0626   23.9890 C   0  0  0  0  0  0  0  0  0  0  0  0
   10.1421   -0.7766   22.9242 C   0  0  0  0  0  0  0  0  0  0  0  0
    6.4452   -0.1472   19.6975 C   0  0  0  0  0  0  0  0  0  0  0  0
    3.8974    1.9290   21.5048 C   0  0  0  0  0  0  0  0  0  0  0  0
   12.3697   -1.3298   22.2224 C   0  0  0  0  0  0  0  0  0  0  0  0
    9.9496    0.5589   24.9527 C   0  0  0  0  0  0  0  0  0  0  0  0
    8.2504    0.0168   21.4265 C   0  0  0  0  0  0  0  0  0  0  0  0
    7.2743    2.2339   25.9911 C   0  0  0  0  0  0  0  0  0  0  0  0
    7.6484    3.1063   23.6248 C   0  0  0  0  0  0  0  0  0  0  0  0
    8.8572    3.4809   24.4312 C   0  0  0  0  0  0  0  0  0  0  0  0
    8.0155   -2.1541   22.4325 C   0  0  0  0  0  0  0  0  0  0  0  0
    6.9880   -1.9367   21.3575 C   0  0  0  0  0  0  0  0  0  0  0  0
    7.8737   -0.1194   23.8825 C   0  0  0  0  0  0  0  0  0  0  0  0
    2.0948    1.9224   26.6326 C   0  0  0  0  0  0  0  0  0  0  0  0
    1.9089    4.1367   25.5175 C   0  0  0  0  0  0  0  0  0  0  0  0
    2.9412    2.6010   27.6961 C   0  0  0  0  0  0  0  0  0  0  0  0
    2.7645    4.7012   26.6389 C   0  0  0  0  0  0  0  0  0  0  0  0
    8.6253   -0.7606   22.6923 C   0  0  3  0  0  0  0  0  0  0  0  0
    8.0937    2.2235   24.7641 C   0  0  0  0  0  0  0  0  0  0  0  0
    7.3837    1.9520   28.4592 C   0  0  0  0  0  0  0  0  0  0  0  0
    1.5001    2.0474   24.2088 C   0  0  0  0  0  0  0  0  0  0  0  0
    2.0556    2.5430   22.8882 C   0  0  0  0  0  0  0  0  0  0  0  0
    6.3072    0.3768   17.3417 N   0  0  0  0  0  0  0  0  0  0  0  0
    7.2305   -0.6898   20.7785 N   0  0  0  0  0  0  0  0  0  0  0  0
    8.6625    1.0133   24.4989 N   0  0  0  0  0  0  0  0  0  0  0  0
    7.9894    1.9860   27.1473 N   0  0  0  0  0  0  0  0  0  0  0  0
    2.2642    2.6796   25.3365 N   0  3  0  0  0  0  0  0  0  0  0  0
   10.3233    0.7301   26.1084 O   0  0  0  0  0  0  0  0  0  0  0  0
    8.8205    1.0412   21.0776 O   0  0  0  0  0  0  0  0  0  0  0  0
    6.0711    2.4522   25.9123 O   0  0  0  0  0  0  0  0  0  0  0  0
    2.5551    3.9679   27.8467 O   0  0  0  0  0  0  0  0  0  0  0  0
    3.4243    2.1582   22.7713 O   0  0  0  0  0  0  0  0  0  0  0  0
   13.4287   -2.1467   21.1125 Cl  0  0  0  0  0  0  0  0  0  0  0  0
    3.3418    2.9747   18.3367 H   0  0  0  0  0  0  0  0  0  0  0  0
   12.5188    0.5959   24.9712 H   0  0  0  0  0  0  0  0  0  0  0  0
    2.5418    3.3504   20.6305 H   0  0  0  0  0  0  0  0  0  0  0  0
   13.9920   -0.5225   23.3819 H   0  0  0  0  0  0  0  0  0  0  0  0
    5.3175    0.4856   22.1531 H   0  0  0  0  0  0  0  0  0  0  0  0
   10.6143   -2.0253   21.2265 H   0  0  0  0  0  0  0  0  0  0  0  0
    4.9141    1.7513   16.7475 H   0  0  0  0  0  0  0  0  0  0  0  0
    7.6459   -0.9759   18.1036 H   0  0  0  0  0  0  0  0  0  0  0  0
    6.7552    3.7072   23.7499 H   0  0  0  0  0  0  0  0  0  0  0  0
    7.8098    2.7620   22.6100 H   0  0  0  0  0  0  0  0  0  0  0  0
    9.8268    3.3863   23.9564 H   0  0  0  0  0  0  0  0  0  0  0  0
    8.7731    4.3325   25.0962 H   0  0  0  0  0  0  0  0  0  0  0  0
    7.5125   -2.5270   23.3387 H   0  0  0  0  0  0  0  0  0  0  0  0
    8.7589   -2.9107   22.1432 H   0  0  0  0  0  0  0  0  0  0  0  0
    7.0600   -2.7259   20.5720 H   0  0  0  0  0  0  0  0  0  0  0  0
    5.9527   -1.9961   21.7709 H   0  0  0  0  0  0  0  0  0  0  0  0
    6.9276    0.3247   23.5633 H   0  0  0  0  0  0  0  0  0  0  0  0
    7.6527   -0.8545   24.6567 H   0  0  0  0  0  0  0  0  0  0  0  0
    2.4199    0.8935   26.4620 H   0  0  0  0  0  0  0  0  0  0  0  0
    1.0311    1.9531   26.8851 H   0  0  0  0  0  0  0  0  0  0  0  0
    0.8442    4.1778   25.7639 H   0  0  0  0  0  0  0  0  0  0  0  0
    2.1048    4.6468   24.5716 H   0  0  0  0  0  0  0  0  0  0  0  0
    2.7873    2.1066   28.6606 H   0  0  0  0  0  0  0  0  0  0  0  0
    4.0112    2.5418   27.4635 H   0  0  0  0  0  0  0  0  0  0  0  0
    3.8302    4.6930   26.3809 H   0  0  0  0  0  0  0  0  0  0  0  0
    2.4809    5.7407   26.8310 H   0  0  0  0  0  0  0  0  0  0  0  0
    7.4071    2.9593   28.9006 H   0  0  0  0  0  0  0  0  0  0  0  0
    6.3405    1.6140   28.3726 H   0  0  0  0  0  0  0  0  0  0  0  0
    7.9423    1.2567   29.1029 H   0  0  0  0  0  0  0  0  0  0  0  0
    1.6168    0.9663   24.3252 H   0  0  0  0  0  0  0  0  0  0  0  0
    0.4532    2.3335   24.3400 H   0  0  0  0  0  0  0  0  0  0  0  0
    1.5049    2.0878   22.0591 H   0  0  0  0  0  0  0  0  0  0  0  0
    1.9835    3.6321   22.8023 H   0  0  0  0  0  0  0  0  0  0  0  0
    8.9884    1.8197   27.0716 H   0  0  0  0  0  0  0  0  0  0  0  0
    3.2627    2.6368   25.0847 H   0  0  0  0  0  0  0  0  0  0  0  0
  1  3  2  0  0  0  0
  1  9  1  0  0  0  0
  2  4  2  0  0  0  0
  2 11  1  0  0  0  0
  3 14  1  0  0  0  0
  4 15  1  0  0  0  0
  5 10  1  0  0  0  0
  5 14  2  0  0  0  0
  6 12  1  0  0  0  0
  6 15  2  0  0  0  0
  7  9  2  0  0  0  0
  7 33  1  0  0  0  0
  8 13  1  0  0  0  0
  8 33  2  0  0  0  0
  9 10  1  0  0  0  0
 10 13  2  0  0  0  0
 11 12  2  0  0  0  0
 11 16  1  0  0  0  0
 12 28  1  0  0  0  0
 13 34  1  0  0  0  0
 14 42  1  0  0  0  0
 15 43  1  0  0  0  0
 16 35  1  0  0  0  0
 16 38  2  0  0  0  0
 17 28  1  0  0  0  0
 17 34  1  0  0  0  0
 17 39  2  0  0  0  0
 18 29  1  0  0  0  0
 18 36  1  0  0  0  0
 18 40  2  0  0  0  0
 19 20  1  0  0  0  0
 19 29  1  0  0  0  0
 20 29  1  0  0  0  0
 21 22  1  0  0  0  0
 21 28  1  0  0  0  0
 22 34  1  0  0  0  0
 23 28  1  0  0  0  0
 23 35  1  0  0  0  0
 24 26  1  0  0  0  0
 24 37  1  0  0  0  0
 25 27  1  0  0  0  0
 25 37  1  0  0  0  0
 26 41  1  0  0  0  0
 27 41  1  0  0  0  0
 29 35  1  0  0  0  0
 30 36  1  0  0  0  0
 31 32  1  0  0  0  0
 31 37  1  0  0  0  0
 32 42  1  0  0  0  0
  1 44  1  0  0  0  0
  2 45  1  0  0  0  0
  3 46  1  0  0  0  0
  4 47  1  0  0  0  0
  5 48  1  0  0  0  0
  6 49  1  0  0  0  0
  7 50  1  0  0  0  0
  8 51  1  0  0  0  0
 19 52  1  0  0  0  0
 19 53  1  0  0  0  0
 20 54  1  0  0  0  0
 20 55  1  0  0  0  0
 21 56  1  0  0  0  0
 21 57  1  0  0  0  0
 22 58  1  0  0  0  0
 22 59  1  0  0  0  0
 23 60  1  0  0  0  0
 23 61  1  0  0  0  0
 24 62  1  0  0  0  0
 24 63  1  0  0  0  0
 25 64  1  0  0  0  0
 25 65  1  0  0  0  0
 26 66  1  0  0  0  0
 26 67  1  0  0  0  0
 27 68  1  0  0  0  0
 27 69  1  0  0  0  0
 30 70  1  0  0  0  0
 30 71  1  0  0  0  0
 30 72  1  0  0  0  0
 31 73  1  0  0  0  0
 31 74  1  0  0  0  0
 32 75  1  0  0  0  0
 32 76  1  0  0  0  0
 36 77  1  0  0  0  0
 37 78  1  0  0  0  0
M  CHG  1  37   1
M  END
> <scaffold>
tetrahydroisoquinoline-5spiro-isoquinoline

> <compound>
EDJ-MED-dfa1d800-2

> <compound_smiles>
CNC(=O)C1(CC1)N2CC3(CCN(C3=O)c4cncc5c4cc(cc5)OCCN6CCOCC6)c7cc(ccc7C2=O)Cl

> <enantiomer_smiles>
CNC(=O)C1(CC1)N2C[C@]3(CCN(C3=O)c4cncc5c4cc(cc5)OCCN6CCOCC6)c7cc(ccc7C2=O)Cl

> <clash_score>
0

> <docking_score>
3.4028234663852886e+38

> <overlap_score>
0.986118733882904

> <MMFF_internal_energy>
231.3818397356491

> <docked_smiles>
CNC(=O)C1(CC1)N2C[C@]3(CCN(C3=O)c4cncc5c4cc(cc5)OCC[NH+]6CCOCC6)c7cc(ccc7C2=O)Cl

$$$$
MAT-POS-40ad851a-5_1
  -OEChem-01042202313D

 81 87  0     1  0  0  0  0  0999 V2000
    6.5085    4.1242   27.2108 C   0  0  0  0  0  0  0  0  0  0  0  0
    3.7877    2.4205   19.1658 C   0  0  0  0  0  0  0  0  0  0  0  0
   12.0781    0.0316   24.1532 C   0  0  0  0  0  0  0  0  0  0  0  0
    3.3444    2.6278   20.4409 C   0  0  0  0  0  0  0  0  0  0  0  0
   12.9147   -0.6032   23.2559 C   0  0  0  0  0  0  0  0  0  0  0  0
    4.8986    1.0232   21.2985 C   0  0  0  0  0  0  0  0  0  0  0  0
   11.0005   -1.4332   22.0435 C   0  0  0  0  0  0  0  0  0  0  0  0
    5.3288    1.2339   17.6062 C   0  0  0  0  0  0  0  0  0  0  0  0
    6.8449   -0.2893   18.3747 C   0  0  0  0  0  0  0  0  0  0  0  0
    4.8238    1.4906   18.9051 C   0  0  0  0  0  0  0  0  0  0  0  0
    5.3995    0.7732   19.9944 C   0  0  0  0  0  0  0  0  0  0  0  0
   10.7056   -0.0626   23.9890 C   0  0  0  0  0  0  0  0  0  0  0  0
   10.1421   -0.7766   22.9242 C   0  0  0  0  0  0  0  0  0  0  0  0
    6.4452   -0.1472   19.6975 C   0  0  0  0  0  0  0  0  0  0  0  0
    3.8974    1.9290   21.5048 C   0  0  0  0  0  0  0  0  0  0  0  0
   12.3697   -1.3298   22.2224 C   0  0  0  0  0  0  0  0  0  0  0  0
    8.2504    0.0168   21.4265 C   0  0  0  0  0  0  0  0  0  0  0  0
    9.9496    0.5589   24.9527 C   0  0  0  0  0  0  0  0  0  0  0  0
    1.7587    5.1952   28.4800 C   0  0  0  0  0  0  0  0  0  0  0  0
    1.4370    6.5720   27.9348 C   0  0  0  0  0  0  0  0  0  0  0  0
    8.9233    4.1045   27.9348 C   0  0  0  0  0  0  0  0  0  0  0  0
    8.1407    3.3523   28.9703 C   0  0  0  0  0  0  0  0  0  0  0  0
    8.0155   -2.1541   22.4325 C   0  0  0  0  0  0  0  0  0  0  0  0
    6.9880   -1.9367   21.3575 C   0  0  0  0  0  0  0  0  0  0  0  0
    7.8737   -0.1194   23.8825 C   0  0  0  0  0  0  0  0  0  0  0  0
    2.0371    4.3994   27.2230 C   0  0  0  0  0  0  0  0  0  0  0  0
    2.4512    6.7744   26.8227 C   0  0  0  0  0  0  0  0  0  0  0  0
    7.6783    3.3474   27.5304 C   0  0  0  0  0  0  0  0  0  0  0  0
    8.6253   -0.7606   22.6923 C   0  0  3  0  0  0  0  0  0  0  0  0
    7.8473    2.0738   26.7326 C   0  0  0  0  0  0  0  0  0  0  0  0
    3.1247    3.7629   24.5297 C   0  0  0  0  0  0  0  0  0  0  0  0
    2.6171    5.1489   24.8888 C   0  0  0  0  0  0  0  0  0  0  0  0
    2.9178    3.4619   23.0523 C   0  0  0  0  0  0  0  0  0  0  0  0
    5.5661    4.7500   26.9533 N   0  0  0  0  0  0  0  0  0  0  0  0
    6.3072    0.3768   17.3417 N   0  0  0  0  0  0  0  0  0  0  0  0
    7.2305   -0.6898   20.7785 N   0  0  0  0  0  0  0  0  0  0  0  0
    8.6625    1.0133   24.4989 N   0  0  3  0  0  0  0  0  0  0  0  0
    2.8026    5.3739   26.3550 N   0  3  0  0  0  0  0  0  0  0  0  0
    8.7514    1.0901   21.1243 O   0  0  0  0  0  0  0  0  0  0  0  0
    6.6038    2.4247   24.4615 O   0  0  0  0  0  0  0  0  0  0  0  0
    8.8593    3.5127   24.8004 O   0  0  0  0  0  0  0  0  0  0  0  0
    3.4243    2.1582   22.7713 O   0  0  0  0  0  0  0  0  0  0  0  0
    7.9493    2.4047   24.9925 S   0  0  0  0  0  0  0  0  0  0  0  0
   13.4297   -2.1462   21.1126 Cl  0  0  0  0  0  0  0  0  0  0  0  0
    3.3418    2.9747   18.3367 H   0  0  0  0  0  0  0  0  0  0  0  0
   12.5046    0.5852   24.9818 H   0  0  0  0  0  0  0  0  0  0  0  0
    2.5418    3.3504   20.6305 H   0  0  0  0  0  0  0  0  0  0  0  0
   13.9930   -0.5302   23.3869 H   0  0  0  0  0  0  0  0  0  0  0  0
    5.3175    0.4856   22.1531 H   0  0  0  0  0  0  0  0  0  0  0  0
   10.6139   -2.0326   21.2341 H   0  0  0  0  0  0  0  0  0  0  0  0
    4.9141    1.7513   16.7475 H   0  0  0  0  0  0  0  0  0  0  0  0
    7.6459   -0.9759   18.1036 H   0  0  0  0  0  0  0  0  0  0  0  0
    9.7590   -0.1307   25.8193 H   0  0  0  0  0  0  0  0  0  0  0  0
   10.4971    1.4368   25.3930 H   0  0  0  0  0  0  0  0  0  0  0  0
    2.6491    5.2322   29.1188 H   0  0  0  0  0  0  0  0  0  0  0  0
    0.9330    4.7763   29.0619 H   0  0  0  0  0  0  0  0  0  0  0  0
    0.4203    6.5875   27.5245 H   0  0  0  0  0  0  0  0  0  0  0  0
    1.5063    7.3480   28.7025 H   0  0  0  0  0  0  0  0  0  0  0  0
    8.8915    5.1877   27.9703 H   0  0  0  0  0  0  0  0  0  0  0  0
    9.8891    3.7057   27.6465 H   0  0  0  0  0  0  0  0  0  0  0  0
    8.5829    2.4498   29.3763 H   0  0  0  0  0  0  0  0  0  0  0  0
    7.5861    3.9324   29.6991 H   0  0  0  0  0  0  0  0  0  0  0  0
    7.5139   -2.5724   23.3172 H   0  0  0  0  0  0  0  0  0  0  0  0
    8.7710   -2.8991   22.1377 H   0  0  0  0  0  0  0  0  0  0  0  0
    7.0576   -2.7256   20.5712 H   0  0  0  0  0  0  0  0  0  0  0  0
    5.9526   -1.9955   21.7714 H   0  0  0  0  0  0  0  0  0  0  0  0
    6.8959    0.2848   23.5662 H   0  0  0  0  0  0  0  0  0  0  0  0
    7.6721   -0.8632   24.6716 H   0  0  0  0  0  0  0  0  0  0  0  0
    2.6568    3.5153   27.3877 H   0  0  0  0  0  0  0  0  0  0  0  0
    1.1121    4.1371   26.7000 H   0  0  0  0  0  0  0  0  0  0  0  0
    2.0507    7.3525   25.9852 H   0  0  0  0  0  0  0  0  0  0  0  0
    3.3767    7.2288   27.1887 H   0  0  0  0  0  0  0  0  0  0  0  0
    6.9980    1.4017   26.8837 H   0  0  0  0  0  0  0  0  0  0  0  0
    8.7660    1.5532   27.0163 H   0  0  0  0  0  0  0  0  0  0  0  0
    2.6144    2.9992   25.1306 H   0  0  0  0  0  0  0  0  0  0  0  0
    4.1906    3.6687   24.7734 H   0  0  0  0  0  0  0  0  0  0  0  0
    1.5484    5.2602   24.6832 H   0  0  0  0  0  0  0  0  0  0  0  0
    3.1756    5.9361   24.3737 H   0  0  0  0  0  0  0  0  0  0  0  0
    3.4520    4.1851   22.4280 H   0  0  0  0  0  0  0  0  0  0  0  0
    1.8542    3.4852   22.7943 H   0  0  0  0  0  0  0  0  0  0  0  0
    3.8023    5.2349   26.5617 H   0  0  0  0  0  0  0  0  0  0  0  0
  1 28  1  0  0  0  0
  1 34  3  0  0  0  0
  2  4  2  0  0  0  0
  2 10  1  0  0  0  0
  3  5  2  0  0  0  0
  3 12  1  0  0  0  0
  4 15  1  0  0  0  0
  5 16  1  0  0  0  0
  6 11  1  0  0  0  0
  6 15  2  0  0  0  0
  7 13  1  0  0  0  0
  7 16  2  0  0  0  0
  8 10  2  0  0  0  0
  8 35  1  0  0  0  0
  9 14  1  0  0  0  0
  9 35  2  0  0  0  0
 10 11  1  0  0  0  0
 11 14  2  0  0  0  0
 12 13  2  0  0  0  0
 12 18  1  0  0  0  0
 13 29  1  0  0  0  0
 14 36  1  0  0  0  0
 15 42  1  0  0  0  0
 16 44  1  0  0  0  0
 17 29  1  0  0  0  0
 17 36  1  0  0  0  0
 17 39  2  0  0  0  0
 18 37  1  0  0  0  0
 19 20  1  0  0  0  0
 19 26  1  0  0  0  0
 20 27  1  0  0  0  0
 21 22  1  0  0  0  0
 21 28  1  0  0  0  0
 22 28  1  0  0  0  0
 23 24  1  0  0  0  0
 23 29  1  0  0  0  0
 24 36  1  0  0  0  0
 25 29  1  0  0  0  0
 25 37  1  0  0  0  0
 26 38  1  0  0  0  0
 27 38  1  0  0  0  0
 28 30  1  0  0  0  0
 30 43  1  0  0  0  0
 31 32  1  0  0  0  0
 31 33  1  0  0  0  0
 32 38  1  0  0  0  0
 33 42  1  0  0  0  0
 37 43  1  0  0  0  0
 40 43  2  0  0  0  0
 41 43  2  0  0  0  0
  2 45  1  0  0  0  0
  3 46  1  0  0  0  0
  4 47  1  0  0  0  0
  5 48  1  0  0  0  0
  6 49  1  0  0  0  0
  7 50  1  0  0  0  0
  8 51  1  0  0  0  0
  9 52  1  0  0  0  0
 18 53  1  0  0  0  0
 18 54  1  0  0  0  0
 19 55  1  0  0  0  0
 19 56  1  0  0  0  0
 20 57  1  0  0  0  0
 20 58  1  0  0  0  0
 21 59  1  0  0  0  0
 21 60  1  0  0  0  0
 22 61  1  0  0  0  0
 22 62  1  0  0  0  0
 23 63  1  0  0  0  0
 23 64  1  0  0  0  0
 24 65  1  0  0  0  0
 24 66  1  0  0  0  0
 25 67  1  0  0  0  0
 25 68  1  0  0  0  0
 26 69  1  0  0  0  0
 26 70  1  0  0  0  0
 27 71  1  0  0  0  0
 27 72  1  0  0  0  0
 30 73  1  0  0  0  0
 30 74  1  0  0  0  0
 31 75  1  0  0  0  0
 31 76  1  0  0  0  0
 32 77  1  0  0  0  0
 32 78  1  0  0  0  0
 33 79  1  0  0  0  0
 33 80  1  0  0  0  0
 38 81  1  0  0  0  0
M  CHG  1  38   1
M  END
> <scaffold>
tetrahydroisoquinoline-5spiro-isoquinoline

> <compound>
MAT-POS-40ad851a-5

> <compound_smiles>
c1cc2cncc(c2cc1OCCCN3CCCC3)N4CCC5(C4=O)CN(Cc6c5cc(cc6)Cl)S(=O)(=O)CC7(CC7)C#N

> <enantiomer_smiles>
c1cc2cncc(c2cc1OCCCN3CCCC3)N4CC[C@]5(C4=O)C[N@@](Cc6c5cc(cc6)Cl)S(=O)(=O)CC7(CC7)C#N

> <clash_score>
0

> <docking_score>
3.4028234663852886e+38

> <overlap_score>
0.9688913226127625

> <MMFF_internal_energy>
107.80375131002769

> <docked_smiles>
c1cc2cncc(c2cc1OCCC[NH+]3CCCC3)N4CC[C@]5(C4=O)C[N@@](Cc6c5cc(cc6)Cl)S(=O)(=O)CC7(CC7)C#N

$$$$
EDJ-MED-ee81482e-5_1
  -OEChem-01042202313D

 76 83  0     1  0  0  0  0  0999 V2000
    5.4996    1.9996   27.7504 C   0  0  0  0  0  0  0  0  0  0  0  0
    3.7877    2.4205   19.1658 C   0  0  0  0  0  0  0  0  0  0  0  0
   12.0781    0.0316   24.1532 C   0  0  0  0  0  0  0  0  0  0  0  0
    3.3444    2.6278   20.4409 C   0  0  0  0  0  0  0  0  0  0  0  0
   12.9147   -0.6032   23.2559 C   0  0  0  0  0  0  0  0  0  0  0  0
    4.8986    1.0232   21.2985 C   0  0  0  0  0  0  0  0  0  0  0  0
   11.0005   -1.4332   22.0435 C   0  0  0  0  0  0  0  0  0  0  0  0
    5.3288    1.2339   17.6062 C   0  0  0  0  0  0  0  0  0  0  0  0
    6.8449   -0.2893   18.3747 C   0  0  0  0  0  0  0  0  0  0  0  0
    4.8238    1.4906   18.9051 C   0  0  0  0  0  0  0  0  0  0  0  0
    5.3995    0.7732   19.9944 C   0  0  0  0  0  0  0  0  0  0  0  0
   10.7056   -0.0626   23.9890 C   0  0  0  0  0  0  0  0  0  0  0  0
   10.1421   -0.7766   22.9242 C   0  0  0  0  0  0  0  0  0  0  0  0
    3.8974    1.9290   21.5048 C   0  0  0  0  0  0  0  0  0  0  0  0
    6.4452   -0.1472   19.6975 C   0  0  0  0  0  0  0  0  0  0  0  0
   12.3697   -1.3298   22.2224 C   0  0  0  0  0  0  0  0  0  0  0  0
    8.2504    0.0168   21.4265 C   0  0  0  0  0  0  0  0  0  0  0  0
    9.9496    0.5589   24.9527 C   0  0  0  0  0  0  0  0  0  0  0  0
    7.6043    2.4328   29.0689 C   0  0  0  0  0  0  0  0  0  0  0  0
    7.0823    1.0907   29.4894 C   0  0  0  0  0  0  0  0  0  0  0  0
    8.0155   -2.1541   22.4325 C   0  0  0  0  0  0  0  0  0  0  0  0
    6.9880   -1.9367   21.3575 C   0  0  0  0  0  0  0  0  0  0  0  0
    7.8737   -0.1194   23.8825 C   0  0  0  0  0  0  0  0  0  0  0  0
    1.6713    0.4196   22.9817 C   0  0  0  0  0  0  0  0  0  0  0  0
    1.5235    1.9133   24.4766 C   0  0  0  0  0  0  0  0  0  0  0  0
   -0.6112    0.4678   24.2104 C   0  0  0  0  0  0  0  0  0  0  0  0
    0.8910   -0.4719   25.2974 C   0  0  0  0  0  0  0  0  0  0  0  0
    6.8379    1.5828   28.0804 C   0  0  0  0  0  0  0  0  0  0  0  0
    8.6253   -0.7606   22.6923 C   0  0  3  0  0  0  0  0  0  0  0  0
    0.8797    0.5811   24.2428 C   0  0  0  0  0  0  0  0  0  0  0  0
    3.3812    2.1809   22.8921 C   0  0  0  0  0  0  0  0  0  0  0  0
    7.6088    0.9304   26.9546 C   0  0  0  0  0  0  0  0  0  0  0  0
    4.4214    2.3356   27.4845 N   0  0  0  0  0  0  0  0  0  0  0  0
    6.3072    0.3768   17.3417 N   0  0  0  0  0  0  0  0  0  0  0  0
    7.2305   -0.6898   20.7785 N   0  0  0  0  0  0  0  0  0  0  0  0
    8.6625    1.0133   24.4989 N   0  0  3  0  0  0  0  0  0  0  0  0
    1.9404    1.8810   23.0491 N   0  3  0  0  0  0  0  0  0  0  0  0
    8.8314    1.0394   21.0790 O   0  0  0  0  0  0  0  0  0  0  0  0
    6.4559    2.2241   24.9990 O   0  0  0  0  0  0  0  0  0  0  0  0
    8.6119    3.1278   25.9583 O   0  0  0  0  0  0  0  0  0  0  0  0
   -0.5646   -0.5487   25.2555 O   0  0  0  0  0  0  0  0  0  0  0  0
    7.7725    2.0180   25.5623 S   0  0  0  0  0  0  0  0  0  0  0  0
   13.4285   -2.1410   21.1076 Cl  0  0  0  0  0  0  0  0  0  0  0  0
    3.3431    2.9748   18.3360 H   0  0  0  0  0  0  0  0  0  0  0  0
   12.5038    0.5986   24.9731 H   0  0  0  0  0  0  0  0  0  0  0  0
    2.5422    3.3527   20.6266 H   0  0  0  0  0  0  0  0  0  0  0  0
   13.9925   -0.5165   23.3773 H   0  0  0  0  0  0  0  0  0  0  0  0
    5.3189    0.4834   22.1514 H   0  0  0  0  0  0  0  0  0  0  0  0
   10.6052   -2.0169   21.2237 H   0  0  0  0  0  0  0  0  0  0  0  0
    4.9144    1.7509   16.7472 H   0  0  0  0  0  0  0  0  0  0  0  0
    7.6460   -0.9759   18.1038 H   0  0  0  0  0  0  0  0  0  0  0  0
    9.7866   -0.1187   25.8304 H   0  0  0  0  0  0  0  0  0  0  0  0
   10.4816    1.4567   25.3600 H   0  0  0  0  0  0  0  0  0  0  0  0
    7.1266    3.3111   29.4880 H   0  0  0  0  0  0  0  0  0  0  0  0
    8.6755    2.5381   28.9408 H   0  0  0  0  0  0  0  0  0  0  0  0
    7.8042    0.2970   29.6439 H   0  0  0  0  0  0  0  0  0  0  0  0
    6.2559    1.0713   30.1907 H   0  0  0  0  0  0  0  0  0  0  0  0
    7.5167   -2.5459   23.3332 H   0  0  0  0  0  0  0  0  0  0  0  0
    8.7666   -2.9029   22.1426 H   0  0  0  0  0  0  0  0  0  0  0  0
    7.0601   -2.7250   20.5715 H   0  0  0  0  0  0  0  0  0  0  0  0
    5.9530   -1.9963   21.7709 H   0  0  0  0  0  0  0  0  0  0  0  0
    6.8882    0.2643   23.5640 H   0  0  0  0  0  0  0  0  0  0  0  0
    7.6667   -0.8657   24.6729 H   0  0  0  0  0  0  0  0  0  0  0  0
    2.5627   -0.2119   23.0682 H   0  0  0  0  0  0  0  0  0  0  0  0
    1.1147    0.1400   22.0823 H   0  0  0  0  0  0  0  0  0  0  0  0
    0.8564    2.7520   24.6964 H   0  0  0  0  0  0  0  0  0  0  0  0
    2.3527    1.9110   25.1931 H   0  0  0  0  0  0  0  0  0  0  0  0
   -1.1766    1.3439   24.5406 H   0  0  0  0  0  0  0  0  0  0  0  0
   -1.0520    0.0665   23.2934 H   0  0  0  0  0  0  0  0  0  0  0  0
    1.3428   -1.4295   25.0233 H   0  0  0  0  0  0  0  0  0  0  0  0
    1.2402   -0.1654   26.2875 H   0  0  0  0  0  0  0  0  0  0  0  0
    3.9072    1.5621   23.6316 H   0  0  0  0  0  0  0  0  0  0  0  0
    3.5121    3.2296   23.1915 H   0  0  0  0  0  0  0  0  0  0  0  0
    7.0989    0.0296   26.6018 H   0  0  0  0  0  0  0  0  0  0  0  0
    8.6192    0.6630   27.2756 H   0  0  0  0  0  0  0  0  0  0  0  0
    1.3346    2.4378   22.4325 H   0  0  0  0  0  0  0  0  0  0  0  0
  1 28  1  0  0  0  0
  1 33  3  0  0  0  0
  2  4  2  0  0  0  0
  2 10  1  0  0  0  0
  3  5  2  0  0  0  0
  3 12  1  0  0  0  0
  4 14  1  0  0  0  0
  5 16  1  0  0  0  0
  6 11  1  0  0  0  0
  6 14  2  0  0  0  0
  7 13  1  0  0  0  0
  7 16  2  0  0  0  0
  8 10  2  0  0  0  0
  8 34  1  0  0  0  0
  9 15  1  0  0  0  0
  9 34  2  0  0  0  0
 10 11  1  0  0  0  0
 11 15  2  0  0  0  0
 12 13  2  0  0  0  0
 12 18  1  0  0  0  0
 13 29  1  0  0  0  0
 14 31  1  0  0  0  0
 15 35  1  0  0  0  0
 16 43  1  0  0  0  0
 17 29  1  0  0  0  0
 17 35  1  0  0  0  0
 17 38  2  0  0  0  0
 18 36  1  0  0  0  0
 19 20  1  0  0  0  0
 19 28  1  0  0  0  0
 20 28  1  0  0  0  0
 21 22  1  0  0  0  0
 21 29  1  0  0  0  0
 22 35  1  0  0  0  0
 23 29  1  0  0  0  0
 23 36  1  0  0  0  0
 24 30  1  0  0  0  0
 24 37  1  0  0  0  0
 25 30  1  0  0  0  0
 25 37  1  0  0  0  0
 26 30  1  0  0  0  0
 26 41  1  0  0  0  0
 27 30  1  0  0  0  0
 27 41  1  0  0  0  0
 28 32  1  0  0  0  0
 31 37  1  0  0  0  0
 32 42  1  0  0  0  0
 36 42  1  0  0  0  0
 39 42  2  0  0  0  0
 40 42  2  0  0  0  0
  2 44  1  0  0  0  0
  3 45  1  0  0  0  0
  4 46  1  0  0  0  0
  5 47  1  0  0  0  0
  6 48  1  0  0  0  0
  7 49  1  0  0  0  0
  8 50  1  0  0  0  0
  9 51  1  0  0  0  0
 18 52  1  0  0  0  0
 18 53  1  0  0  0  0
 19 54  1  0  0  0  0
 19 55  1  0  0  0  0
 20 56  1  0  0  0  0
 20 57  1  0  0  0  0
 21 58  1  0  0  0  0
 21 59  1  0  0  0  0
 22 60  1  0  0  0  0
 22 61  1  0  0  0  0
 23 62  1  0  0  0  0
 23 63  1  0  0  0  0
 24 64  1  0  0  0  0
 24 65  1  0  0  0  0
 25 66  1  0  0  0  0
 25 67  1  0  0  0  0
 26 68  1  0  0  0  0
 26 69  1  0  0  0  0
 27 70  1  0  0  0  0
 27 71  1  0  0  0  0
 31 72  1  0  0  0  0
 31 73  1  0  0  0  0
 32 74  1  0  0  0  0
 32 75  1  0  0  0  0
 37 76  1  0  0  0  0
M  CHG  1  37   1
M  END
> <scaffold>
tetrahydroisoquinoline-5spiro-isoquinoline

> <compound>
EDJ-MED-ee81482e-5

> <compound_smiles>
c1cc2cncc(c2cc1CN3CC4(C3)COC4)N5CCC6(C5=O)CN(Cc7c6cc(cc7)Cl)S(=O)(=O)CC8(CC8)C#N

> <enantiomer_smiles>
c1cc2cncc(c2cc1CN3CC4(C3)COC4)N5CC[C@]6(C5=O)C[N@](Cc7c6cc(cc7)Cl)S(=O)(=O)CC8(CC8)C#N

> <clash_score>
0

> <docking_score>
3.4028234663852886e+38

> <overlap_score>
0.9668527245521545

> <MMFF_internal_energy>
107.97351116007249

> <docked_smiles>
c1cc2cncc(c2cc1C[NH+]3CC4(C3)COC4)N5CC[C@]6(C5=O)C[N@](Cc7c6cc(cc7)Cl)S(=O)(=O)CC8(CC8)C#N

$$$$
EDJ-MED-ee81482e-1_1
  -OEChem-01042202313D

 69 75  0     1  0  0  0  0  0999 V2000
    6.5923    2.6670   28.4298 C   0  0  0  0  0  0  0  0  0  0  0  0
    3.7877    2.4205   19.1658 C   0  0  0  0  0  0  0  0  0  0  0  0
   12.0781    0.0316   24.1532 C   0  0  0  0  0  0  0  0  0  0  0  0
    3.3444    2.6278   20.4409 C   0  0  0  0  0  0  0  0  0  0  0  0
   12.9147   -0.6032   23.2559 C   0  0  0  0  0  0  0  0  0  0  0  0
    4.8986    1.0232   21.2985 C   0  0  0  0  0  0  0  0  0  0  0  0
   11.0005   -1.4332   22.0435 C   0  0  0  0  0  0  0  0  0  0  0  0
    5.3288    1.2339   17.6062 C   0  0  0  0  0  0  0  0  0  0  0  0
    6.8449   -0.2893   18.3747 C   0  0  0  0  0  0  0  0  0  0  0  0
    4.8238    1.4906   18.9051 C   0  0  0  0  0  0  0  0  0  0  0  0
    5.3995    0.7732   19.9944 C   0  0  0  0  0  0  0  0  0  0  0  0
   10.7056   -0.0626   23.9890 C   0  0  0  0  0  0  0  0  0  0  0  0
   10.1421   -0.7766   22.9242 C   0  0  0  0  0  0  0  0  0  0  0  0
    6.4452   -0.1472   19.6975 C   0  0  0  0  0  0  0  0  0  0  0  0
    3.8974    1.9290   21.5048 C   0  0  0  0  0  0  0  0  0  0  0  0
   12.3697   -1.3298   22.2224 C   0  0  0  0  0  0  0  0  0  0  0  0
    8.2504    0.0168   21.4265 C   0  0  0  0  0  0  0  0  0  0  0  0
    9.9496    0.5589   24.9527 C   0  0  0  0  0  0  0  0  0  0  0  0
    5.7974    0.2895   28.6968 C   0  0  0  0  0  0  0  0  0  0  0  0
    5.0772    0.8711   27.5163 C   0  0  0  0  0  0  0  0  0  0  0  0
    8.0155   -2.1541   22.4325 C   0  0  0  0  0  0  0  0  0  0  0  0
    6.9880   -1.9367   21.3575 C   0  0  0  0  0  0  0  0  0  0  0  0
    7.8737   -0.1194   23.8825 C   0  0  0  0  0  0  0  0  0  0  0  0
    1.5137    0.5204   22.9451 C   0  0  0  0  0  0  0  0  0  0  0  0
    2.1022    1.3468   24.7655 C   0  0  0  0  0  0  0  0  0  0  0  0
    2.8619    1.0350   23.4683 C   0  0  0  0  0  0  0  0  0  0  0  0
    6.4702    1.3516   27.8565 C   0  0  0  0  0  0  0  0  0  0  0  0
    8.6253   -0.7606   22.6923 C   0  0  3  0  0  0  0  0  0  0  0  0
    7.6088    0.9304   26.9546 C   0  0  0  0  0  0  0  0  0  0  0  0
    6.6907    3.7267   28.8917 N   0  0  0  0  0  0  0  0  0  0  0  0
    6.3072    0.3768   17.3417 N   0  0  0  0  0  0  0  0  0  0  0  0
    7.2305   -0.6898   20.7785 N   0  0  0  0  0  0  0  0  0  0  0  0
    8.6625    1.0133   24.4989 N   0  0  3  0  0  0  0  0  0  0  0  0
    1.0612    0.3999   24.3391 N   0  3  0  0  0  0  0  0  0  0  0  0
    8.8314    1.0394   21.0790 O   0  0  0  0  0  0  0  0  0  0  0  0
    6.4559    2.2241   24.9990 O   0  0  0  0  0  0  0  0  0  0  0  0
    8.6119    3.1278   25.9583 O   0  0  0  0  0  0  0  0  0  0  0  0
    3.4243    2.1582   22.7713 O   0  0  0  0  0  0  0  0  0  0  0  0
    7.7725    2.0180   25.5623 S   0  0  0  0  0  0  0  0  0  0  0  0
   13.4285   -2.1410   21.1076 Cl  0  0  0  0  0  0  0  0  0  0  0  0
    3.3418    2.9747   18.3367 H   0  0  0  0  0  0  0  0  0  0  0  0
   12.5038    0.5986   24.9731 H   0  0  0  0  0  0  0  0  0  0  0  0
    2.5418    3.3504   20.6305 H   0  0  0  0  0  0  0  0  0  0  0  0
   13.9925   -0.5165   23.3773 H   0  0  0  0  0  0  0  0  0  0  0  0
    5.3175    0.4856   22.1531 H   0  0  0  0  0  0  0  0  0  0  0  0
   10.6052   -2.0169   21.2237 H   0  0  0  0  0  0  0  0  0  0  0  0
    4.9141    1.7513   16.7476 H   0  0  0  0  0  0  0  0  0  0  0  0
    7.6459   -0.9759   18.1036 H   0  0  0  0  0  0  0  0  0  0  0  0
    9.7866   -0.1187   25.8304 H   0  0  0  0  0  0  0  0  0  0  0  0
   10.4816    1.4567   25.3600 H   0  0  0  0  0  0  0  0  0  0  0  0
    5.4358    0.5518   29.6847 H   0  0  0  0  0  0  0  0  0  0  0  0
    6.1481   -0.7331   28.6181 H   0  0  0  0  0  0  0  0  0  0  0  0
    4.9448    0.2375   26.6469 H   0  0  0  0  0  0  0  0  0  0  0  0
    4.2331    1.5218   27.7146 H   0  0  0  0  0  0  0  0  0  0  0  0
    7.5167   -2.5459   23.3332 H   0  0  0  0  0  0  0  0  0  0  0  0
    8.7666   -2.9029   22.1426 H   0  0  0  0  0  0  0  0  0  0  0  0
    7.0601   -2.7250   20.5715 H   0  0  0  0  0  0  0  0  0  0  0  0
    5.9530   -1.9963   21.7709 H   0  0  0  0  0  0  0  0  0  0  0  0
    6.8882    0.2643   23.5640 H   0  0  0  0  0  0  0  0  0  0  0  0
    7.6667   -0.8657   24.6729 H   0  0  0  0  0  0  0  0  0  0  0  0
    0.9232    1.2450   22.3748 H   0  0  0  0  0  0  0  0  0  0  0  0
    1.5433   -0.4352   22.4161 H   0  0  0  0  0  0  0  0  0  0  0  0
    2.6027    1.0516   25.6910 H   0  0  0  0  0  0  0  0  0  0  0  0
    1.7250    2.3708   24.8548 H   0  0  0  0  0  0  0  0  0  0  0  0
    3.6091    0.2412   23.5835 H   0  0  0  0  0  0  0  0  0  0  0  0
    7.4436   -0.0760   26.5599 H   0  0  0  0  0  0  0  0  0  0  0  0
    8.5609    0.9485   27.4918 H   0  0  0  0  0  0  0  0  0  0  0  0
    0.0995    0.7207   24.5039 H   0  0  0  0  0  0  0  0  0  0  0  0
    1.1816   -0.5442   24.7287 H   0  0  0  0  0  0  0  0  0  0  0  0
  1 27  1  0  0  0  0
  1 30  3  0  0  0  0
  2  4  2  0  0  0  0
  2 10  1  0  0  0  0
  3  5  2  0  0  0  0
  3 12  1  0  0  0  0
  4 15  1  0  0  0  0
  5 16  1  0  0  0  0
  6 11  1  0  0  0  0
  6 15  2  0  0  0  0
  7 13  1  0  0  0  0
  7 16  2  0  0  0  0
  8 10  2  0  0  0  0
  8 31  1  0  0  0  0
  9 14  1  0  0  0  0
  9 31  2  0  0  0  0
 10 11  1  0  0  0  0
 11 14  2  0  0  0  0
 12 13  2  0  0  0  0
 12 18  1  0  0  0  0
 13 28  1  0  0  0  0
 14 32  1  0  0  0  0
 15 38  1  0  0  0  0
 16 40  1  0  0  0  0
 17 28  1  0  0  0  0
 17 32  1  0  0  0  0
 17 35  2  0  0  0  0
 18 33  1  0  0  0  0
 19 20  1  0  0  0  0
 19 27  1  0  0  0  0
 20 27  1  0  0  0  0
 21 22  1  0  0  0  0
 21 28  1  0  0  0  0
 22 32  1  0  0  0  0
 23 28  1  0  0  0  0
 23 33  1  0  0  0  0
 24 26  1  0  0  0  0
 24 34  1  0  0  0  0
 25 26  1  0  0  0  0
 25 34  1  0  0  0  0
 26 38  1  0  0  0  0
 27 29  1  0  0  0  0
 29 39  1  0  0  0  0
 33 39  1  0  0  0  0
 36 39  2  0  0  0  0
 37 39  2  0  0  0  0
  2 41  1  0  0  0  0
  3 42  1  0  0  0  0
  4 43  1  0  0  0  0
  5 44  1  0  0  0  0
  6 45  1  0  0  0  0
  7 46  1  0  0  0  0
  8 47  1  0  0  0  0
  9 48  1  0  0  0  0
 18 49  1  0  0  0  0
 18 50  1  0  0  0  0
 19 51  1  0  0  0  0
 19 52  1  0  0  0  0
 20 53  1  0  0  0  0
 20 54  1  0  0  0  0
 21 55  1  0  0  0  0
 21 56  1  0  0  0  0
 22 57  1  0  0  0  0
 22 58  1  0  0  0  0
 23 59  1  0  0  0  0
 23 60  1  0  0  0  0
 24 61  1  0  0  0  0
 24 62  1  0  0  0  0
 25 63  1  0  0  0  0
 25 64  1  0  0  0  0
 26 65  1  0  0  0  0
 29 66  1  0  0  0  0
 29 67  1  0  0  0  0
 34 68  1  0  0  0  0
 34 69  1  0  0  0  0
M  CHG  1  34   1
M  END
> <scaffold>
tetrahydroisoquinoline-5spiro-isoquinoline

> <compound>
EDJ-MED-ee81482e-1

> <compound_smiles>
c1cc2cncc(c2cc1OC3CNC3)N4CCC5(C4=O)CN(Cc6c5cc(cc6)Cl)S(=O)(=O)CC7(CC7)C#N

> <enantiomer_smiles>
c1cc2cncc(c2cc1OC3CNC3)N4CC[C@]5(C4=O)C[N@](Cc6c5cc(cc6)Cl)S(=O)(=O)CC7(CC7)C#N

> <clash_score>
0

> <docking_score>
3.4028234663852886e+38

> <overlap_score>
0.9742510914802551

> <MMFF_internal_energy>
148.8296558280697

> <docked_smiles>
c1cc2cncc(c2cc1OC3C[NH2+]C3)N4CC[C@]5(C4=O)C[N@](Cc6c5cc(cc6)Cl)S(=O)(=O)CC7(CC7)C#N

$$$$
JOH-MSK-949975c8-1_1
  -OEChem-01042202313D

 73 79  0     1  0  0  0  0  0999 V2000
    7.9703    5.6689   24.5769 C   0  0  0  0  0  0  0  0  0  0  0  0
    3.3444    2.6278   20.4409 C   0  0  0  0  0  0  0  0  0  0  0  0
    3.8974    1.9290   21.5048 C   0  0  0  0  0  0  0  0  0  0  0  0
    3.7877    2.4205   19.1658 C   0  0  0  0  0  0  0  0  0  0  0  0
    4.8986    1.0232   21.2985 C   0  0  0  0  0  0  0  0  0  0  0  0
   12.0781    0.0316   24.1532 C   0  0  0  0  0  0  0  0  0  0  0  0
   12.9147   -0.6032   23.2559 C   0  0  0  0  0  0  0  0  0  0  0  0
   11.0005   -1.4332   22.0435 C   0  0  0  0  0  0  0  0  0  0  0  0
    5.3288    1.2339   17.6062 C   0  0  0  0  0  0  0  0  0  0  0  0
    6.8449   -0.2893   18.3747 C   0  0  0  0  0  0  0  0  0  0  0  0
    4.8238    1.4906   18.9051 C   0  0  0  0  0  0  0  0  0  0  0  0
    5.3995    0.7732   19.9944 C   0  0  0  0  0  0  0  0  0  0  0  0
   10.7056   -0.0626   23.9890 C   0  0  0  0  0  0  0  0  0  0  0  0
   10.1421   -0.7766   22.9242 C   0  0  0  0  0  0  0  0  0  0  0  0
    6.4452   -0.1472   19.6975 C   0  0  0  0  0  0  0  0  0  0  0  0
   12.3697   -1.3298   22.2224 C   0  0  0  0  0  0  0  0  0  0  0  0
   10.5646   -6.4617   21.1377 C   0  0  0  0  0  0  0  0  0  0  0  0
    8.2504    0.0168   21.4265 C   0  0  0  0  0  0  0  0  0  0  0  0
    6.9880   -1.9367   21.3575 C   0  0  0  0  0  0  0  0  0  0  0  0
    9.9496    0.5589   24.9527 C   0  0  0  0  0  0  0  0  0  0  0  0
    9.9706   -5.3333   20.3190 C   0  0  0  0  0  0  0  0  0  0  0  0
    8.8640   -4.5590   21.0185 C   0  0  0  0  0  0  0  0  0  0  0  0
    6.2730    5.1251   26.3600 C   0  0  0  0  0  0  0  0  0  0  0  0
    5.7394    4.5989   25.0604 C   0  0  0  0  0  0  0  0  0  0  0  0
    9.6028   -5.4260   23.2162 C   0  0  0  0  0  0  0  0  0  0  0  0
    7.8737   -0.1194   23.8825 C   0  0  0  0  0  0  0  0  0  0  0  0
    9.3143   -4.1569   22.4218 C   0  0  2  0  0  0  0  0  0  0  0  0
    7.2332    4.6575   25.2893 C   0  0  0  0  0  0  0  0  0  0  0  0
    8.6253   -0.7606   22.6923 C   0  0  3  0  0  0  0  0  0  0  0  0
    8.2579   -3.3055   23.1193 C   0  0  0  0  0  0  0  0  0  0  0  0
    7.9707    3.3564   25.5135 C   0  0  0  0  0  0  0  0  0  0  0  0
    8.5641    6.4838   24.0029 N   0  0  0  0  0  0  0  0  0  0  0  0
    6.3072    0.3768   17.3417 N   0  0  0  0  0  0  0  0  0  0  0  0
   10.4572   -6.3602   22.5066 N   0  0  0  0  0  0  0  0  0  0  0  0
    7.2305   -0.6898   20.7785 N   0  0  0  0  0  0  0  0  0  0  0  0
    8.0155   -2.1541   22.4325 N   0  0  0  0  0  0  0  0  0  0  0  0
    8.6625    1.0133   24.4989 N   0  0  3  0  0  0  0  0  0  0  0  0
   11.1822   -7.3763   20.5893 O   0  0  0  0  0  0  0  0  0  0  0  0
    8.7998    1.0396   21.0800 O   0  0  0  0  0  0  0  0  0  0  0  0
    6.1190   -2.7539   21.1344 O   0  0  0  0  0  0  0  0  0  0  0  0
    7.2612    2.6055   23.1135 O   0  0  0  0  0  0  0  0  0  0  0  0
    9.6895    3.1459   23.5567 O   0  0  0  0  0  0  0  0  0  0  0  0
    8.4215    2.5910   23.9775 S   0  0  0  0  0  0  0  0  0  0  0  0
   13.4282   -2.1420   21.1083 Cl  0  0  0  0  0  0  0  0  0  0  0  0
    2.5443    3.3508   20.6368 H   0  0  0  0  0  0  0  0  0  0  0  0
    3.5189    2.1137   22.5166 H   0  0  0  0  0  0  0  0  0  0  0  0
    3.3421    2.9744   18.3363 H   0  0  0  0  0  0  0  0  0  0  0  0
    5.3131    0.4893   22.1569 H   0  0  0  0  0  0  0  0  0  0  0  0
   12.5037    0.5925   24.9776 H   0  0  0  0  0  0  0  0  0  0  0  0
   13.9924   -0.5231   23.3822 H   0  0  0  0  0  0  0  0  0  0  0  0
   10.6056   -2.0210   21.2259 H   0  0  0  0  0  0  0  0  0  0  0  0
    4.9151    1.7511   16.7471 H   0  0  0  0  0  0  0  0  0  0  0  0
    7.6455   -0.9765   18.1038 H   0  0  0  0  0  0  0  0  0  0  0  0
    9.7605   -0.1297   25.8173 H   0  0  0  0  0  0  0  0  0  0  0  0
   10.4959    1.4378   25.3859 H   0  0  0  0  0  0  0  0  0  0  0  0
   10.7932   -4.6543   20.0645 H   0  0  0  0  0  0  0  0  0  0  0  0
    9.5840   -5.7531   19.3837 H   0  0  0  0  0  0  0  0  0  0  0  0
    8.6101   -3.6720   20.4266 H   0  0  0  0  0  0  0  0  0  0  0  0
    7.9595   -5.1782   21.0753 H   0  0  0  0  0  0  0  0  0  0  0  0
    6.1745    6.1880   26.5497 H   0  0  0  0  0  0  0  0  0  0  0  0
    6.1420    4.5105   27.2431 H   0  0  0  0  0  0  0  0  0  0  0  0
    5.2500    3.6319   25.0733 H   0  0  0  0  0  0  0  0  0  0  0  0
    5.2829    5.3099   24.3811 H   0  0  0  0  0  0  0  0  0  0  0  0
   10.0937   -5.1893   24.1662 H   0  0  0  0  0  0  0  0  0  0  0  0
    8.6769   -5.9659   23.4466 H   0  0  0  0  0  0  0  0  0  0  0  0
    6.8949    0.2815   23.5682 H   0  0  0  0  0  0  0  0  0  0  0  0
    7.6592   -0.8778   24.6530 H   0  0  0  0  0  0  0  0  0  0  0  0
   10.2281   -3.5537   22.3543 H   0  0  0  0  0  0  0  0  0  0  0  0
    7.3256   -3.8839   23.1986 H   0  0  0  0  0  0  0  0  0  0  0  0
    8.6145   -3.0449   24.1267 H   0  0  0  0  0  0  0  0  0  0  0  0
    7.3475    2.6421   26.0587 H   0  0  0  0  0  0  0  0  0  0  0  0
    8.8943    3.5216   26.0747 H   0  0  0  0  0  0  0  0  0  0  0  0
   11.0228   -6.9914   23.0661 H   0  0  0  0  0  0  0  0  0  0  0  0
  1 28  1  0  0  0  0
  1 32  3  0  0  0  0
  2  3  2  0  0  0  0
  2  4  1  0  0  0  0
  3  5  1  0  0  0  0
  4 11  2  0  0  0  0
  5 12  2  0  0  0  0
  6  7  2  0  0  0  0
  6 13  1  0  0  0  0
  7 16  1  0  0  0  0
  8 14  1  0  0  0  0
  8 16  2  0  0  0  0
  9 11  1  0  0  0  0
  9 33  2  0  0  0  0
 10 15  2  0  0  0  0
 10 33  1  0  0  0  0
 11 12  1  0  0  0  0
 12 15  1  0  0  0  0
 13 14  2  0  0  0  0
 13 20  1  0  0  0  0
 14 29  1  0  0  0  0
 15 35  1  0  0  0  0
 16 44  1  0  0  0  0
 17 21  1  0  0  0  0
 17 34  1  0  0  0  0
 17 38  2  0  0  0  0
 18 29  1  0  0  0  0
 18 35  1  0  0  0  0
 18 39  2  0  0  0  0
 19 35  1  0  0  0  0
 19 36  1  0  0  0  0
 19 40  2  0  0  0  0
 20 37  1  0  0  0  0
 21 22  1  0  0  0  0
 22 27  1  0  0  0  0
 23 24  1  0  0  0  0
 23 28  1  0  0  0  0
 24 28  1  0  0  0  0
 25 27  1  0  0  0  0
 25 34  1  0  0  0  0
 26 29  1  0  0  0  0
 26 37  1  0  0  0  0
 27 30  1  1  0  0  0
 28 31  1  0  0  0  0
 29 36  1  0  0  0  0
 30 36  1  0  0  0  0
 31 43  1  0  0  0  0
 37 43  1  0  0  0  0
 41 43  2  0  0  0  0
 42 43  2  0  0  0  0
  2 45  1  0  0  0  0
  3 46  1  0  0  0  0
  4 47  1  0  0  0  0
  5 48  1  0  0  0  0
  6 49  1  0  0  0  0
  7 50  1  0  0  0  0
  8 51  1  0  0  0  0
  9 52  1  0  0  0  0
 10 53  1  0  0  0  0
 20 54  1  0  0  0  0
 20 55  1  0  0  0  0
 21 56  1  0  0  0  0
 21 57  1  0  0  0  0
 22 58  1  0  0  0  0
 22 59  1  0  0  0  0
 23 60  1  0  0  0  0
 23 61  1  0  0  0  0
 24 62  1  0  0  0  0
 24 63  1  0  0  0  0
 25 64  1  0  0  0  0
 25 65  1  0  0  0  0
 26 66  1  0  0  0  0
 26 67  1  0  0  0  0
 27 68  1  0  0  0  0
 30 69  1  0  0  0  0
 30 70  1  0  0  0  0
 31 71  1  0  0  0  0
 31 72  1  0  0  0  0
 34 73  1  0  0  0  0
M  END
> <scaffold>
tetrahydroisoquinoline-5spiro-isoquinoline

> <compound>
JOH-MSK-949975c8-1

> <compound_smiles>
c1ccc2c(c1)cncc2N3C(=O)C4(CN(Cc5c4cc(cc5)Cl)S(=O)(=O)CC6(CC6)C#N)N(C3=O)CC7CCC(=O)NC7

> <enantiomer_smiles>
c1ccc2c(c1)cncc2N3C(=O)[C@@]4(C[N@@](Cc5c4cc(cc5)Cl)S(=O)(=O)CC6(CC6)C#N)N(C3=O)C[C@@H]7CCC(=O)NC7

> <clash_score>
8.716800322136491

> <docking_score>
3.4028234663852886e+38

> <overlap_score>
1.0

> <MMFF_internal_energy>
91.38494480453858

> <docked_smiles>
c1ccc2c(c1)cncc2N3C(=O)[C@@]4(C[N@@](Cc5c4cc(cc5)Cl)S(=O)(=O)CC6(CC6)C#N)N(C3=O)C[C@@H]7CCC(=O)NC7

$$$$
EDJ-MED-ee81482e-3_2
  -OEChem-01042202313D

 78 83  0     1  0  0  0  0  0999 V2000
    6.6332    5.0838   23.9312 C   0  0  0  0  0  0  0  0  0  0  0  0
    3.7877    2.4205   19.1658 C   0  0  0  0  0  0  0  0  0  0  0  0
   12.0781    0.0316   24.1532 C   0  0  0  0  0  0  0  0  0  0  0  0
    3.3444    2.6278   20.4409 C   0  0  0  0  0  0  0  0  0  0  0  0
   12.9147   -0.6032   23.2559 C   0  0  0  0  0  0  0  0  0  0  0  0
    4.8986    1.0232   21.2985 C   0  0  0  0  0  0  0  0  0  0  0  0
   11.0005   -1.4332   22.0435 C   0  0  0  0  0  0  0  0  0  0  0  0
    5.3288    1.2339   17.6062 C   0  0  0  0  0  0  0  0  0  0  0  0
    6.8449   -0.2893   18.3747 C   0  0  0  0  0  0  0  0  0  0  0  0
    4.8238    1.4906   18.9051 C   0  0  0  0  0  0  0  0  0  0  0  0
    5.3995    0.7732   19.9944 C   0  0  0  0  0  0  0  0  0  0  0  0
   10.7056   -0.0626   23.9890 C   0  0  0  0  0  0  0  0  0  0  0  0
   10.1421   -0.7766   22.9242 C   0  0  0  0  0  0  0  0  0  0  0  0
    6.4452   -0.1472   19.6975 C   0  0  0  0  0  0  0  0  0  0  0  0
    3.8974    1.9290   21.5048 C   0  0  0  0  0  0  0  0  0  0  0  0
   12.3697   -1.3298   22.2224 C   0  0  0  0  0  0  0  0  0  0  0  0
    8.2504    0.0168   21.4265 C   0  0  0  0  0  0  0  0  0  0  0  0
    9.9496    0.5589   24.9527 C   0  0  0  0  0  0  0  0  0  0  0  0
    8.9047    6.0883   23.4985 C   0  0  0  0  0  0  0  0  0  0  0  0
    8.8087    5.8192   24.9712 C   0  0  0  0  0  0  0  0  0  0  0  0
    8.0155   -2.1541   22.4325 C   0  0  0  0  0  0  0  0  0  0  0  0
    6.9880   -1.9367   21.3575 C   0  0  0  0  0  0  0  0  0  0  0  0
    7.8737   -0.1194   23.8825 C   0  0  0  0  0  0  0  0  0  0  0  0
    8.0640    4.9343   23.9968 C   0  0  0  0  0  0  0  0  0  0  0  0
    8.6253   -0.7606   22.6923 C   0  0  3  0  0  0  0  0  0  0  0  0
    3.1908    4.6161   26.2948 C   0  0  0  0  0  0  0  0  0  0  0  0
    3.8511    2.3051   26.9456 C   0  0  0  0  0  0  0  0  0  0  0  0
    8.5788    3.5299   23.7736 C   0  0  0  0  0  0  0  0  0  0  0  0
    2.1293    2.6576   25.1816 C   0  0  0  0  0  0  0  0  0  0  0  0
    3.4807    1.0726   23.6950 C   0  0  0  0  0  0  0  0  0  0  0  0
    2.3434    1.2265   24.7004 C   0  0  2  0  0  0  0  0  0  0  0  0
    5.4804    5.2043   23.8782 N   0  0  0  0  0  0  0  0  0  0  0  0
    6.3072    0.3768   17.3417 N   0  0  0  0  0  0  0  0  0  0  0  0
    7.2305   -0.6898   20.7785 N   0  0  0  0  0  0  0  0  0  0  0  0
    8.6625    1.0133   24.4989 N   0  0  3  0  0  0  0  0  0  0  0  0
    3.3540    3.1902   25.8293 N   0  3  0  0  0  0  0  0  0  0  0  0
    8.7514    1.0901   21.1243 O   0  0  0  0  0  0  0  0  0  0  0  0
    8.5049    2.7779   26.2749 O   0  0  0  0  0  0  0  0  0  0  0  0
    6.5226    2.2779   24.7896 O   0  0  0  0  0  0  0  0  0  0  0  0
    1.1289    0.7597   24.1107 O   0  0  0  0  0  0  0  0  0  0  0  0
    3.4243    2.1582   22.7713 O   0  0  0  0  0  0  0  0  0  0  0  0
    7.9493    2.4047   24.9925 S   0  0  0  0  0  0  0  0  0  0  0  0
   13.4297   -2.1462   21.1126 Cl  0  0  0  0  0  0  0  0  0  0  0  0
    3.3418    2.9747   18.3367 H   0  0  0  0  0  0  0  0  0  0  0  0
   12.5046    0.5852   24.9818 H   0  0  0  0  0  0  0  0  0  0  0  0
    2.5418    3.3504   20.6305 H   0  0  0  0  0  0  0  0  0  0  0  0
   13.9930   -0.5302   23.3869 H   0  0  0  0  0  0  0  0  0  0  0  0
    5.3175    0.4856   22.1532 H   0  0  0  0  0  0  0  0  0  0  0  0
   10.6139   -2.0326   21.2341 H   0  0  0  0  0  0  0  0  0  0  0  0
    4.9141    1.7513   16.7475 H   0  0  0  0  0  0  0  0  0  0  0  0
    7.6459   -0.9759   18.1036 H   0  0  0  0  0  0  0  0  0  0  0  0
    9.7590   -0.1307   25.8193 H   0  0  0  0  0  0  0  0  0  0  0  0
   10.4971    1.4368   25.3930 H   0  0  0  0  0  0  0  0  0  0  0  0
    8.4086    6.9734   23.1165 H   0  0  0  0  0  0  0  0  0  0  0  0
    9.8460    5.8698   23.0077 H   0  0  0  0  0  0  0  0  0  0  0  0
    9.6865    5.4211   25.4672 H   0  0  0  0  0  0  0  0  0  0  0  0
    8.2492    6.5250   25.5746 H   0  0  0  0  0  0  0  0  0  0  0  0
    7.5139   -2.5724   23.3172 H   0  0  0  0  0  0  0  0  0  0  0  0
    8.7710   -2.8991   22.1377 H   0  0  0  0  0  0  0  0  0  0  0  0
    7.0576   -2.7256   20.5712 H   0  0  0  0  0  0  0  0  0  0  0  0
    5.9526   -1.9955   21.7714 H   0  0  0  0  0  0  0  0  0  0  0  0
    6.8959    0.2848   23.5662 H   0  0  0  0  0  0  0  0  0  0  0  0
    7.6721   -0.8632   24.6716 H   0  0  0  0  0  0  0  0  0  0  0  0
    2.4009    4.6332   27.0479 H   0  0  0  0  0  0  0  0  0  0  0  0
    4.1435    4.9407   26.7176 H   0  0  0  0  0  0  0  0  0  0  0  0
    2.9195    5.2216   25.4278 H   0  0  0  0  0  0  0  0  0  0  0  0
    3.0762    2.2693   27.7136 H   0  0  0  0  0  0  0  0  0  0  0  0
    4.0365    1.3134   26.5285 H   0  0  0  0  0  0  0  0  0  0  0  0
    4.7707    2.7448   27.3363 H   0  0  0  0  0  0  0  0  0  0  0  0
    9.6700    3.4981   23.8387 H   0  0  0  0  0  0  0  0  0  0  0  0
    8.2709    3.1510   22.7953 H   0  0  0  0  0  0  0  0  0  0  0  0
    1.8899    3.3340   24.3560 H   0  0  0  0  0  0  0  0  0  0  0  0
    1.3426    2.7069   25.9405 H   0  0  0  0  0  0  0  0  0  0  0  0
    3.3867    0.1467   23.1189 H   0  0  0  0  0  0  0  0  0  0  0  0
    4.4541    1.1017   24.1941 H   0  0  0  0  0  0  0  0  0  0  0  0
    2.5307    0.5882   25.5720 H   0  0  0  0  0  0  0  0  0  0  0  0
    4.1059    3.2050   25.1193 H   0  0  0  0  0  0  0  0  0  0  0  0
    0.4544    0.8028   24.8048 H   0  0  0  0  0  0  0  0  0  0  0  0
  1 24  1  0  0  0  0
  1 32  3  0  0  0  0
  2  4  2  0  0  0  0
  2 10  1  0  0  0  0
  3  5  2  0  0  0  0
  3 12  1  0  0  0  0
  4 15  1  0  0  0  0
  5 16  1  0  0  0  0
  6 11  1  0  0  0  0
  6 15  2  0  0  0  0
  7 13  1  0  0  0  0
  7 16  2  0  0  0  0
  8 10  2  0  0  0  0
  8 33  1  0  0  0  0
  9 14  1  0  0  0  0
  9 33  2  0  0  0  0
 10 11  1  0  0  0  0
 11 14  2  0  0  0  0
 12 13  2  0  0  0  0
 12 18  1  0  0  0  0
 13 25  1  0  0  0  0
 14 34  1  0  0  0  0
 15 41  1  0  0  0  0
 16 43  1  0  0  0  0
 17 25  1  0  0  0  0
 17 34  1  0  0  0  0
 17 37  2  0  0  0  0
 18 35  1  0  0  0  0
 19 20  1  0  0  0  0
 19 24  1  0  0  0  0
 20 24  1  0  0  0  0
 21 22  1  0  0  0  0
 21 25  1  0  0  0  0
 22 34  1  0  0  0  0
 23 25  1  0  0  0  0
 23 35  1  0  0  0  0
 24 28  1  0  0  0  0
 26 36  1  0  0  0  0
 27 36  1  0  0  0  0
 28 42  1  0  0  0  0
 29 31  1  0  0  0  0
 29 36  1  0  0  0  0
 30 31  1  0  0  0  0
 30 41  1  0  0  0  0
 31 40  1  6  0  0  0
 35 42  1  0  0  0  0
 38 42  2  0  0  0  0
 39 42  2  0  0  0  0
  2 44  1  0  0  0  0
  3 45  1  0  0  0  0
  4 46  1  0  0  0  0
  5 47  1  0  0  0  0
  6 48  1  0  0  0  0
  7 49  1  0  0  0  0
  8 50  1  0  0  0  0
  9 51  1  0  0  0  0
 18 52  1  0  0  0  0
 18 53  1  0  0  0  0
 19 54  1  0  0  0  0
 19 55  1  0  0  0  0
 20 56  1  0  0  0  0
 20 57  1  0  0  0  0
 21 58  1  0  0  0  0
 21 59  1  0  0  0  0
 22 60  1  0  0  0  0
 22 61  1  0  0  0  0
 23 62  1  0  0  0  0
 23 63  1  0  0  0  0
 26 64  1  0  0  0  0
 26 65  1  0  0  0  0
 26 66  1  0  0  0  0
 27 67  1  0  0  0  0
 27 68  1  0  0  0  0
 27 69  1  0  0  0  0
 28 70  1  0  0  0  0
 28 71  1  0  0  0  0
 29 72  1  0  0  0  0
 29 73  1  0  0  0  0
 30 74  1  0  0  0  0
 30 75  1  0  0  0  0
 31 76  1  0  0  0  0
 36 77  1  0  0  0  0
 40 78  1  0  0  0  0
M  CHG  1  36   1
M  END
> <scaffold>
tetrahydroisoquinoline-5spiro-isoquinoline

> <compound>
EDJ-MED-ee81482e-3

> <compound_smiles>
CN(C)CC(COc1ccc2cncc(c2c1)N3CCC4(C3=O)CN(Cc5c4cc(cc5)Cl)S(=O)(=O)CC6(CC6)C#N)O

> <enantiomer_smiles>
CN(C)C[C@H](COc1ccc2cncc(c2c1)N3CC[C@]4(C3=O)C[N@](Cc5c4cc(cc5)Cl)S(=O)(=O)CC6(CC6)C#N)O

> <clash_score>
0

> <docking_score>
3.4028234663852886e+38

> <overlap_score>
0.9708982706069946

> <MMFF_internal_energy>
148.19167587081358

> <docked_smiles>
C[NH+](C)C[C@H](COc1ccc2cncc(c2c1)N3CC[C@]4(C3=O)C[N@@](Cc5c4cc(cc5)Cl)S(=O)(=O)CC6(CC6)C#N)O

$$$$
JOH-MSK-cef8a2bc-1_2
  -OEChem-01042202313D

 73 79  0     1  0  0  0  0  0999 V2000
    6.6030    2.6035   28.4529 C   0  0  0  0  0  0  0  0  0  0  0  0
    3.3444    2.6278   20.4409 C   0  0  0  0  0  0  0  0  0  0  0  0
    3.8974    1.9290   21.5048 C   0  0  0  0  0  0  0  0  0  0  0  0
    3.7877    2.4205   19.1658 C   0  0  0  0  0  0  0  0  0  0  0  0
    4.8986    1.0232   21.2985 C   0  0  0  0  0  0  0  0  0  0  0  0
   12.0781    0.0316   24.1532 C   0  0  0  0  0  0  0  0  0  0  0  0
   11.0005   -1.4332   22.0435 C   0  0  0  0  0  0  0  0  0  0  0  0
    5.3288    1.2339   17.6062 C   0  0  0  0  0  0  0  0  0  0  0  0
    6.8449   -0.2893   18.3747 C   0  0  0  0  0  0  0  0  0  0  0  0
    4.8238    1.4906   18.9051 C   0  0  0  0  0  0  0  0  0  0  0  0
    5.3995    0.7732   19.9944 C   0  0  0  0  0  0  0  0  0  0  0  0
   10.7056   -0.0626   23.9890 C   0  0  0  0  0  0  0  0  0  0  0  0
   10.1421   -0.7766   22.9242 C   0  0  0  0  0  0  0  0  0  0  0  0
    6.4452   -0.1472   19.6975 C   0  0  0  0  0  0  0  0  0  0  0  0
   12.9147   -0.6032   23.2559 C   0  0  0  0  0  0  0  0  0  0  0  0
   12.3697   -1.3298   22.2224 C   0  0  0  0  0  0  0  0  0  0  0  0
   10.4829   -6.4588   21.0550 C   0  0  0  0  0  0  0  0  0  0  0  0
    8.2504    0.0168   21.4265 C   0  0  0  0  0  0  0  0  0  0  0  0
    6.9880   -1.9367   21.3575 C   0  0  0  0  0  0  0  0  0  0  0  0
    9.9496    0.5589   24.9527 C   0  0  0  0  0  0  0  0  0  0  0  0
   10.6880   -6.2403   22.5394 C   0  0  0  0  0  0  0  0  0  0  0  0
    9.5828   -5.4430   23.2133 C   0  0  0  0  0  0  0  0  0  0  0  0
    5.8249    0.2165   28.6819 C   0  0  0  0  0  0  0  0  0  0  0  0
    5.0944    0.8143   27.5159 C   0  0  0  0  0  0  0  0  0  0  0  0
    8.8625   -4.5337   21.0206 C   0  0  0  0  0  0  0  0  0  0  0  0
    7.8737   -0.1194   23.8825 C   0  0  0  0  0  0  0  0  0  0  0  0
    9.3123   -4.1606   22.4294 C   0  0  1  0  0  0  0  0  0  0  0  0
    6.4862    1.2978   27.8570 C   0  0  0  0  0  0  0  0  0  0  0  0
    8.6253   -0.7606   22.6923 C   0  0  3  0  0  0  0  0  0  0  0  0
    8.2605   -3.3008   23.1249 C   0  0  0  0  0  0  0  0  0  0  0  0
    7.6223    0.9002   26.9414 C   0  0  0  0  0  0  0  0  0  0  0  0
    6.6971    3.6555   28.9331 N   0  0  0  0  0  0  0  0  0  0  0  0
    6.3072    0.3768   17.3417 N   0  0  0  0  0  0  0  0  0  0  0  0
    9.7040   -5.5366   20.3933 N   0  0  0  0  0  0  0  0  0  0  0  0
    7.2305   -0.6898   20.7785 N   0  0  0  0  0  0  0  0  0  0  0  0
    8.0155   -2.1541   22.4325 N   0  0  0  0  0  0  0  0  0  0  0  0
    8.6625    1.0133   24.4989 N   0  0  3  0  0  0  0  0  0  0  0  0
   11.0599   -7.3775   20.4704 O   0  0  0  0  0  0  0  0  0  0  0  0
    8.8045    1.0418   21.0871 O   0  0  0  0  0  0  0  0  0  0  0  0
    6.1139   -2.7504   21.1411 O   0  0  0  0  0  0  0  0  0  0  0  0
    6.4475    2.2389   25.0297 O   0  0  0  0  0  0  0  0  0  0  0  0
    8.6251    3.1092   25.9708 O   0  0  0  0  0  0  0  0  0  0  0  0
    7.7711    2.0134   25.5679 S   0  0  0  0  0  0  0  0  0  0  0  0
   14.6219   -0.4416   23.4812 Cl  0  0  0  0  0  0  0  0  0  0  0  0
   13.3806   -2.1672   21.0710 Cl  0  0  0  0  0  0  0  0  0  0  0  0
    2.5443    3.3508   20.6368 H   0  0  0  0  0  0  0  0  0  0  0  0
    3.5189    2.1137   22.5166 H   0  0  0  0  0  0  0  0  0  0  0  0
    3.3421    2.9744   18.3363 H   0  0  0  0  0  0  0  0  0  0  0  0
    5.3131    0.4893   22.1569 H   0  0  0  0  0  0  0  0  0  0  0  0
   12.4870    0.6056   24.9784 H   0  0  0  0  0  0  0  0  0  0  0  0
   10.6031   -2.0194   21.2260 H   0  0  0  0  0  0  0  0  0  0  0  0
    4.9151    1.7511   16.7471 H   0  0  0  0  0  0  0  0  0  0  0  0
    7.6455   -0.9765   18.1038 H   0  0  0  0  0  0  0  0  0  0  0  0
    9.7900   -0.1157   25.8352 H   0  0  0  0  0  0  0  0  0  0  0  0
   10.4825    1.4583   25.3593 H   0  0  0  0  0  0  0  0  0  0  0  0
   10.7751   -7.2196   23.0233 H   0  0  0  0  0  0  0  0  0  0  0  0
   11.6472   -5.7228   22.6597 H   0  0  0  0  0  0  0  0  0  0  0  0
    8.6703   -6.0502   23.2691 H   0  0  0  0  0  0  0  0  0  0  0  0
    9.8779   -5.2092   24.2430 H   0  0  0  0  0  0  0  0  0  0  0  0
    5.4672    0.4588   29.6763 H   0  0  0  0  0  0  0  0  0  0  0  0
    6.1819   -0.8022   28.5830 H   0  0  0  0  0  0  0  0  0  0  0  0
    4.9611    0.1954   26.6360 H   0  0  0  0  0  0  0  0  0  0  0  0
    4.2472    1.4558   27.7304 H   0  0  0  0  0  0  0  0  0  0  0  0
    7.8470   -4.9468   21.0294 H   0  0  0  0  0  0  0  0  0  0  0  0
    8.8562   -3.6546   20.3674 H   0  0  0  0  0  0  0  0  0  0  0  0
    6.8963    0.2738   23.5517 H   0  0  0  0  0  0  0  0  0  0  0  0
    7.6759   -0.8553   24.6819 H   0  0  0  0  0  0  0  0  0  0  0  0
   10.2321   -3.5685   22.3716 H   0  0  0  0  0  0  0  0  0  0  0  0
    7.3242   -3.8728   23.2041 H   0  0  0  0  0  0  0  0  0  0  0  0
    8.6178   -3.0413   24.1324 H   0  0  0  0  0  0  0  0  0  0  0  0
    7.4614   -0.1000   26.5297 H   0  0  0  0  0  0  0  0  0  0  0  0
    8.5773    0.9150   27.4735 H   0  0  0  0  0  0  0  0  0  0  0  0
    9.7194   -5.5598   19.3784 H   0  0  0  0  0  0  0  0  0  0  0  0
  1 28  1  0  0  0  0
  1 32  3  0  0  0  0
  2  3  2  0  0  0  0
  2  4  1  0  0  0  0
  3  5  1  0  0  0  0
  4 10  2  0  0  0  0
  5 11  2  0  0  0  0
  6 12  2  0  0  0  0
  6 15  1  0  0  0  0
  7 13  2  0  0  0  0
  7 16  1  0  0  0  0
  8 10  1  0  0  0  0
  8 33  2  0  0  0  0
  9 14  2  0  0  0  0
  9 33  1  0  0  0  0
 10 11  1  0  0  0  0
 11 14  1  0  0  0  0
 12 13  1  0  0  0  0
 12 20  1  0  0  0  0
 13 29  1  0  0  0  0
 14 35  1  0  0  0  0
 15 16  2  0  0  0  0
 15 44  1  0  0  0  0
 16 45  1  0  0  0  0
 17 21  1  0  0  0  0
 17 34  1  0  0  0  0
 17 38  2  0  0  0  0
 18 29  1  0  0  0  0
 18 35  1  0  0  0  0
 18 39  2  0  0  0  0
 19 35  1  0  0  0  0
 19 36  1  0  0  0  0
 19 40  2  0  0  0  0
 20 37  1  0  0  0  0
 21 22  1  0  0  0  0
 22 27  1  0  0  0  0
 23 24  1  0  0  0  0
 23 28  1  0  0  0  0
 24 28  1  0  0  0  0
 25 27  1  0  0  0  0
 25 34  1  0  0  0  0
 26 29  1  0  0  0  0
 26 37  1  0  0  0  0
 27 30  1  6  0  0  0
 28 31  1  0  0  0  0
 29 36  1  0  0  0  0
 30 36  1  0  0  0  0
 31 43  1  0  0  0  0
 37 43  1  0  0  0  0
 41 43  2  0  0  0  0
 42 43  2  0  0  0  0
  2 46  1  0  0  0  0
  3 47  1  0  0  0  0
  4 48  1  0  0  0  0
  5 49  1  0  0  0  0
  6 50  1  0  0  0  0
  7 51  1  0  0  0  0
  8 52  1  0  0  0  0
  9 53  1  0  0  0  0
 20 54  1  0  0  0  0
 20 55  1  0  0  0  0
 21 56  1  0  0  0  0
 21 57  1  0  0  0  0
 22 58  1  0  0  0  0
 22 59  1  0  0  0  0
 23 60  1  0  0  0  0
 23 61  1  0  0  0  0
 24 62  1  0  0  0  0
 24 63  1  0  0  0  0
 25 64  1  0  0  0  0
 25 65  1  0  0  0  0
 26 66  1  0  0  0  0
 26 67  1  0  0  0  0
 27 68  1  0  0  0  0
 30 69  1  0  0  0  0
 30 70  1  0  0  0  0
 31 71  1  0  0  0  0
 31 72  1  0  0  0  0
 34 73  1  0  0  0  0
M  END
> <scaffold>
tetrahydroisoquinoline-5spiro-isoquinoline

> <compound>
JOH-MSK-cef8a2bc-1

> <compound_smiles>
c1ccc2c(c1)cncc2N3C(=O)C4(CN(Cc5c4cc(c(c5)Cl)Cl)S(=O)(=O)CC6(CC6)C#N)N(C3=O)CC7CCC(=O)NC7

> <enantiomer_smiles>
c1ccc2c(c1)cncc2N3C(=O)[C@@]4(C[N@@](Cc5c4cc(c(c5)Cl)Cl)S(=O)(=O)CC6(CC6)C#N)N(C3=O)C[C@H]7CCC(=O)NC7

> <clash_score>
9.989388569907423

> <docking_score>
3.4028234663852886e+38

> <overlap_score>
1.0

> <MMFF_internal_energy>
98.22702596603284

> <docked_smiles>
c1ccc2c(c1)cncc2N3C(=O)[C@@]4(C[N@](Cc5c4cc(c(c5)Cl)Cl)S(=O)(=O)CC6(CC6)C#N)N(C3=O)C[C@H]7CCC(=O)NC7

$$$$
EDJ-MED-468565e0-3_1
  -OEChem-01042202313D

 80 86  0     1  0  0  0  0  0999 V2000
    5.2967    3.5514   26.2583 C   0  0  0  0  0  0  0  0  0  0  0  0
    3.7877    2.4205   19.1658 C   0  0  0  0  0  0  0  0  0  0  0  0
   12.0781    0.0316   24.1532 C   0  0  0  0  0  0  0  0  0  0  0  0
    3.3444    2.6278   20.4409 C   0  0  0  0  0  0  0  0  0  0  0  0
   12.9147   -0.6032   23.2559 C   0  0  0  0  0  0  0  0  0  0  0  0
    4.8986    1.0232   21.2985 C   0  0  0  0  0  0  0  0  0  0  0  0
   11.0005   -1.4332   22.0435 C   0  0  0  0  0  0  0  0  0  0  0  0
    5.3288    1.2339   17.6062 C   0  0  0  0  0  0  0  0  0  0  0  0
    6.8449   -0.2893   18.3747 C   0  0  0  0  0  0  0  0  0  0  0  0
    4.8238    1.4906   18.9051 C   0  0  0  0  0  0  0  0  0  0  0  0
    5.3995    0.7732   19.9944 C   0  0  0  0  0  0  0  0  0  0  0  0
   10.7056   -0.0626   23.9890 C   0  0  0  0  0  0  0  0  0  0  0  0
   10.1421   -0.7766   22.9242 C   0  0  0  0  0  0  0  0  0  0  0  0
    6.4452   -0.1472   19.6975 C   0  0  0  0  0  0  0  0  0  0  0  0
    3.8974    1.9290   21.5048 C   0  0  0  0  0  0  0  0  0  0  0  0
   12.3697   -1.3298   22.2224 C   0  0  0  0  0  0  0  0  0  0  0  0
    8.2504    0.0168   21.4265 C   0  0  0  0  0  0  0  0  0  0  0  0
    9.9496    0.5589   24.9527 C   0  0  0  0  0  0  0  0  0  0  0  0
    6.9792    3.7161   28.1285 C   0  0  0  0  0  0  0  0  0  0  0  0
    5.9429    2.7153   28.5471 C   0  0  0  0  0  0  0  0  0  0  0  0
    8.0155   -2.1541   22.4325 C   0  0  0  0  0  0  0  0  0  0  0  0
    6.9880   -1.9367   21.3575 C   0  0  0  0  0  0  0  0  0  0  0  0
    3.3540    0.3156   26.6807 C   0  0  0  0  0  0  0  0  0  0  0  0
    1.0216   -0.1787   26.1581 C   0  0  0  0  0  0  0  0  0  0  0  0
    7.8737   -0.1194   23.8825 C   0  0  0  0  0  0  0  0  0  0  0  0
    3.5714   -0.9047   27.5674 C   0  0  0  0  0  0  0  0  0  0  0  0
    0.9512   -1.4597   26.9808 C   0  0  0  0  0  0  0  0  0  0  0  0
    6.2729    2.8850   27.0810 C   0  0  0  0  0  0  0  0  0  0  0  0
    8.6253   -0.7606   22.6923 C   0  0  3  0  0  0  0  0  0  0  0  0
    7.0560    1.7877   26.3958 C   0  0  0  0  0  0  0  0  0  0  0  0
    2.3377    1.1942   24.6861 C   0  0  0  0  0  0  0  0  0  0  0  0
    3.4807    1.0726   23.6950 C   0  0  0  0  0  0  0  0  0  0  0  0
    4.5102    4.0883   25.5954 N   0  0  0  0  0  0  0  0  0  0  0  0
    6.3072    0.3768   17.3417 N   0  0  0  0  0  0  0  0  0  0  0  0
    7.2305   -0.6898   20.7785 N   0  0  0  0  0  0  0  0  0  0  0  0
    8.6625    1.0133   24.4989 N   0  0  3  0  0  0  0  0  0  0  0  0
    2.3697    0.0611   25.6148 N   0  0  0  0  0  0  0  0  0  0  0  0
    8.7514    1.0901   21.1243 O   0  0  0  0  0  0  0  0  0  0  0  0
    2.2449   -2.7660   28.8451 O   0  0  0  0  0  0  0  0  0  0  0  0
    1.6415   -0.3500   29.2563 O   0  0  0  0  0  0  0  0  0  0  0  0
    6.9865    2.7904   23.9840 O   0  0  0  0  0  0  0  0  0  0  0  0
    8.9572    3.3243   25.4729 O   0  0  0  0  0  0  0  0  0  0  0  0
    3.4243    2.1582   22.7713 O   0  0  0  0  0  0  0  0  0  0  0  0
    2.0657   -1.4106   28.3636 S   0  0  0  0  0  0  0  0  0  0  0  0
    7.9493    2.4047   24.9925 S   0  0  0  0  0  0  0  0  0  0  0  0
   13.4297   -2.1462   21.1126 Cl  0  0  0  0  0  0  0  0  0  0  0  0
    3.3418    2.9747   18.3367 H   0  0  0  0  0  0  0  0  0  0  0  0
   12.5046    0.5852   24.9818 H   0  0  0  0  0  0  0  0  0  0  0  0
    2.5418    3.3504   20.6305 H   0  0  0  0  0  0  0  0  0  0  0  0
   13.9930   -0.5302   23.3869 H   0  0  0  0  0  0  0  0  0  0  0  0
    5.3175    0.4856   22.1531 H   0  0  0  0  0  0  0  0  0  0  0  0
   10.6139   -2.0326   21.2341 H   0  0  0  0  0  0  0  0  0  0  0  0
    4.9141    1.7513   16.7475 H   0  0  0  0  0  0  0  0  0  0  0  0
    7.6459   -0.9759   18.1036 H   0  0  0  0  0  0  0  0  0  0  0  0
    9.7590   -0.1307   25.8193 H   0  0  0  0  0  0  0  0  0  0  0  0
   10.4971    1.4368   25.3930 H   0  0  0  0  0  0  0  0  0  0  0  0
    6.7292    4.7669   28.2223 H   0  0  0  0  0  0  0  0  0  0  0  0
    8.0151    3.4923   28.3559 H   0  0  0  0  0  0  0  0  0  0  0  0
    6.2848    1.8214   29.0559 H   0  0  0  0  0  0  0  0  0  0  0  0
    4.9999    3.0968   28.9218 H   0  0  0  0  0  0  0  0  0  0  0  0
    7.5139   -2.5724   23.3172 H   0  0  0  0  0  0  0  0  0  0  0  0
    8.7710   -2.8991   22.1377 H   0  0  0  0  0  0  0  0  0  0  0  0
    7.0576   -2.7256   20.5712 H   0  0  0  0  0  0  0  0  0  0  0  0
    5.9526   -1.9955   21.7714 H   0  0  0  0  0  0  0  0  0  0  0  0
    3.0501    1.1782   27.2915 H   0  0  0  0  0  0  0  0  0  0  0  0
    4.3245    0.5705   26.2323 H   0  0  0  0  0  0  0  0  0  0  0  0
    0.3047   -0.2816   25.3319 H   0  0  0  0  0  0  0  0  0  0  0  0
    0.6891    0.6785   26.7616 H   0  0  0  0  0  0  0  0  0  0  0  0
    6.8959    0.2848   23.5662 H   0  0  0  0  0  0  0  0  0  0  0  0
    7.6721   -0.8632   24.6716 H   0  0  0  0  0  0  0  0  0  0  0  0
    3.9368   -1.7561   26.9832 H   0  0  0  0  0  0  0  0  0  0  0  0
    4.2988   -0.6887   28.3557 H   0  0  0  0  0  0  0  0  0  0  0  0
   -0.0563   -1.6106   27.3808 H   0  0  0  0  0  0  0  0  0  0  0  0
    1.2172   -2.3323   26.3747 H   0  0  0  0  0  0  0  0  0  0  0  0
    6.3903    0.9996   26.0331 H   0  0  0  0  0  0  0  0  0  0  0  0
    7.7894    1.3466   27.0764 H   0  0  0  0  0  0  0  0  0  0  0  0
    2.4143    2.1175   25.2690 H   0  0  0  0  0  0  0  0  0  0  0  0
    1.3767    1.1794   24.1630 H   0  0  0  0  0  0  0  0  0  0  0  0
    3.3874    0.1412   23.1278 H   0  0  0  0  0  0  0  0  0  0  0  0
    4.4530    1.0884   24.1980 H   0  0  0  0  0  0  0  0  0  0  0  0
  1 28  1  0  0  0  0
  1 33  3  0  0  0  0
  2  4  2  0  0  0  0
  2 10  1  0  0  0  0
  3  5  2  0  0  0  0
  3 12  1  0  0  0  0
  4 15  1  0  0  0  0
  5 16  1  0  0  0  0
  6 11  1  0  0  0  0
  6 15  2  0  0  0  0
  7 13  1  0  0  0  0
  7 16  2  0  0  0  0
  8 10  2  0  0  0  0
  8 34  1  0  0  0  0
  9 14  1  0  0  0  0
  9 34  2  0  0  0  0
 10 11  1  0  0  0  0
 11 14  2  0  0  0  0
 12 13  2  0  0  0  0
 12 18  1  0  0  0  0
 13 29  1  0  0  0  0
 14 35  1  0  0  0  0
 15 43  1  0  0  0  0
 16 46  1  0  0  0  0
 17 29  1  0  0  0  0
 17 35  1  0  0  0  0
 17 38  2  0  0  0  0
 18 36  1  0  0  0  0
 19 20  1  0  0  0  0
 19 28  1  0  0  0  0
 20 28  1  0  0  0  0
 21 22  1  0  0  0  0
 21 29  1  0  0  0  0
 22 35  1  0  0  0  0
 23 26  1  0  0  0  0
 23 37  1  0  0  0  0
 24 27  1  0  0  0  0
 24 37  1  0  0  0  0
 25 29  1  0  0  0  0
 25 36  1  0  0  0  0
 26 44  1  0  0  0  0
 27 44  1  0  0  0  0
 28 30  1  0  0  0  0
 30 45  1  0  0  0  0
 31 32  1  0  0  0  0
 31 37  1  0  0  0  0
 32 43  1  0  0  0  0
 36 45  1  0  0  0  0
 39 44  2  0  0  0  0
 40 44  2  0  0  0  0
 41 45  2  0  0  0  0
 42 45  2  0  0  0  0
  2 47  1  0  0  0  0
  3 48  1  0  0  0  0
  4 49  1  0  0  0  0
  5 50  1  0  0  0  0
  6 51  1  0  0  0  0
  7 52  1  0  0  0  0
  8 53  1  0  0  0  0
  9 54  1  0  0  0  0
 18 55  1  0  0  0  0
 18 56  1  0  0  0  0
 19 57  1  0  0  0  0
 19 58  1  0  0  0  0
 20 59  1  0  0  0  0
 20 60  1  0  0  0  0
 21 61  1  0  0  0  0
 21 62  1  0  0  0  0
 22 63  1  0  0  0  0
 22 64  1  0  0  0  0
 23 65  1  0  0  0  0
 23 66  1  0  0  0  0
 24 67  1  0  0  0  0
 24 68  1  0  0  0  0
 25 69  1  0  0  0  0
 25 70  1  0  0  0  0
 26 71  1  0  0  0  0
 26 72  1  0  0  0  0
 27 73  1  0  0  0  0
 27 74  1  0  0  0  0
 30 75  1  0  0  0  0
 30 76  1  0  0  0  0
 31 77  1  0  0  0  0
 31 78  1  0  0  0  0
 32 79  1  0  0  0  0
 32 80  1  0  0  0  0
M  END
> <scaffold>
tetrahydroisoquinoline-5spiro-isoquinoline

> <compound>
EDJ-MED-468565e0-3

> <compound_smiles>
c1cc2cncc(c2cc1OCCN3CCS(=O)(=O)CC3)N4CCC5(C4=O)CN(Cc6c5cc(cc6)Cl)S(=O)(=O)CC7(CC7)C#N

> <enantiomer_smiles>
c1cc2cncc(c2cc1OCCN3CCS(=O)(=O)CC3)N4CC[C@]5(C4=O)C[N@@](Cc6c5cc(cc6)Cl)S(=O)(=O)CC7(CC7)C#N

> <clash_score>
0

> <docking_score>
3.4028234663852886e+38

> <overlap_score>
0.9660508632659912

> <MMFF_internal_energy>
126.81335717233114

> <docked_smiles>
c1cc2cncc(c2cc1OCCN3CCS(=O)(=O)CC3)N4CC[C@]5(C4=O)C[N@@](Cc6c5cc(cc6)Cl)S(=O)(=O)CC7(CC7)C#N

$$$$
EDJ-MED-468565e0-4_1
  -OEChem-01042202313D

 81 87  0     1  0  0  0  0  0999 V2000
    5.2967    3.5514   26.2583 C   0  0  0  0  0  0  0  0  0  0  0  0
    3.7877    2.4205   19.1658 C   0  0  0  0  0  0  0  0  0  0  0  0
   12.0781    0.0316   24.1532 C   0  0  0  0  0  0  0  0  0  0  0  0
    3.3444    2.6278   20.4409 C   0  0  0  0  0  0  0  0  0  0  0  0
   12.9147   -0.6032   23.2559 C   0  0  0  0  0  0  0  0  0  0  0  0
    4.8986    1.0232   21.2985 C   0  0  0  0  0  0  0  0  0  0  0  0
   11.0005   -1.4332   22.0435 C   0  0  0  0  0  0  0  0  0  0  0  0
    5.3288    1.2339   17.6062 C   0  0  0  0  0  0  0  0  0  0  0  0
    6.8449   -0.2893   18.3747 C   0  0  0  0  0  0  0  0  0  0  0  0
    4.8238    1.4906   18.9051 C   0  0  0  0  0  0  0  0  0  0  0  0
    5.3995    0.7732   19.9944 C   0  0  0  0  0  0  0  0  0  0  0  0
   10.7056   -0.0626   23.9890 C   0  0  0  0  0  0  0  0  0  0  0  0
   10.1421   -0.7766   22.9242 C   0  0  0  0  0  0  0  0  0  0  0  0
    6.4452   -0.1472   19.6975 C   0  0  0  0  0  0  0  0  0  0  0  0
    3.8974    1.9290   21.5048 C   0  0  0  0  0  0  0  0  0  0  0  0
   12.3697   -1.3298   22.2224 C   0  0  0  0  0  0  0  0  0  0  0  0
    8.2504    0.0168   21.4265 C   0  0  0  0  0  0  0  0  0  0  0  0
    9.9496    0.5589   24.9527 C   0  0  0  0  0  0  0  0  0  0  0  0
    6.9792    3.7161   28.1285 C   0  0  0  0  0  0  0  0  0  0  0  0
    5.9430    2.7153   28.5471 C   0  0  0  0  0  0  0  0  0  0  0  0
    8.0155   -2.1541   22.4325 C   0  0  0  0  0  0  0  0  0  0  0  0
   -0.6075   -0.2900   22.7844 C   0  0  0  0  0  0  0  0  0  0  0  0
   -1.3341    1.8515   23.9066 C   0  0  0  0  0  0  0  0  0  0  0  0
    6.9880   -1.9367   21.3575 C   0  0  0  0  0  0  0  0  0  0  0  0
    7.8737   -0.1194   23.8825 C   0  0  0  0  0  0  0  0  0  0  0  0
    0.6640   -0.2901   23.6204 C   0  0  0  0  0  0  0  0  0  0  0  0
   -0.0593    1.8420   24.7374 C   0  0  0  0  0  0  0  0  0  0  0  0
    6.2729    2.8850   27.0810 C   0  0  0  0  0  0  0  0  0  0  0  0
    8.6253   -0.7606   22.6923 C   0  0  3  0  0  0  0  0  0  0  0  0
   -1.7345    0.4506   23.4809 C   0  0  0  0  0  0  0  0  0  0  0  0
    7.0560    1.7877   26.3958 C   0  0  0  0  0  0  0  0  0  0  0  0
    2.3501    1.1994   24.6970 C   0  0  0  0  0  0  0  0  0  0  0  0
    3.4807    1.0726   23.6950 C   0  0  0  0  0  0  0  0  0  0  0  0
    4.5102    4.0883   25.5954 N   0  0  0  0  0  0  0  0  0  0  0  0
    6.3072    0.3768   17.3417 N   0  0  0  0  0  0  0  0  0  0  0  0
    7.2305   -0.6898   20.7785 N   0  0  0  0  0  0  0  0  0  0  0  0
    8.6625    1.0133   24.4989 N   0  0  3  0  0  0  0  0  0  0  0  0
    1.0341    1.1327   23.9717 N   0  3  0  0  0  0  0  0  0  0  0  0
    8.7514    1.0901   21.1243 O   0  0  0  0  0  0  0  0  0  0  0  0
    6.9865    2.7904   23.9840 O   0  0  0  0  0  0  0  0  0  0  0  0
    8.9572    3.3243   25.4729 O   0  0  0  0  0  0  0  0  0  0  0  0
    3.4243    2.1582   22.7713 O   0  0  0  0  0  0  0  0  0  0  0  0
   -2.1248   -0.2547   24.5743 F   0  0  0  0  0  0  0  0  0  0  0  0
   -2.8115    0.5153   22.6600 F   0  0  0  0  0  0  0  0  0  0  0  0
    7.9493    2.4047   24.9925 S   0  0  0  0  0  0  0  0  0  0  0  0
   13.4297   -2.1462   21.1126 Cl  0  0  0  0  0  0  0  0  0  0  0  0
    3.3418    2.9747   18.3367 H   0  0  0  0  0  0  0  0  0  0  0  0
   12.5046    0.5852   24.9818 H   0  0  0  0  0  0  0  0  0  0  0  0
    2.5418    3.3504   20.6305 H   0  0  0  0  0  0  0  0  0  0  0  0
   13.9930   -0.5302   23.3869 H   0  0  0  0  0  0  0  0  0  0  0  0
    5.3175    0.4856   22.1531 H   0  0  0  0  0  0  0  0  0  0  0  0
   10.6139   -2.0326   21.2341 H   0  0  0  0  0  0  0  0  0  0  0  0
    4.9141    1.7513   16.7475 H   0  0  0  0  0  0  0  0  0  0  0  0
    7.6459   -0.9759   18.1036 H   0  0  0  0  0  0  0  0  0  0  0  0
    9.7590   -0.1307   25.8193 H   0  0  0  0  0  0  0  0  0  0  0  0
   10.4971    1.4368   25.3930 H   0  0  0  0  0  0  0  0  0  0  0  0
    6.7292    4.7669   28.2222 H   0  0  0  0  0  0  0  0  0  0  0  0
    8.0151    3.4923   28.3559 H   0  0  0  0  0  0  0  0  0  0  0  0
    6.2849    1.8214   29.0559 H   0  0  0  0  0  0  0  0  0  0  0  0
    4.9999    3.0968   28.9218 H   0  0  0  0  0  0  0  0  0  0  0  0
    7.5139   -2.5724   23.3172 H   0  0  0  0  0  0  0  0  0  0  0  0
    8.7710   -2.8991   22.1377 H   0  0  0  0  0  0  0  0  0  0  0  0
   -0.4154    0.1645   21.8049 H   0  0  0  0  0  0  0  0  0  0  0  0
   -0.9141   -1.3246   22.5939 H   0  0  0  0  0  0  0  0  0  0  0  0
   -2.1441    2.2999   24.4934 H   0  0  0  0  0  0  0  0  0  0  0  0
   -1.2025    2.4845   23.0207 H   0  0  0  0  0  0  0  0  0  0  0  0
    7.0576   -2.7256   20.5712 H   0  0  0  0  0  0  0  0  0  0  0  0
    5.9526   -1.9955   21.7714 H   0  0  0  0  0  0  0  0  0  0  0  0
    6.8959    0.2848   23.5662 H   0  0  0  0  0  0  0  0  0  0  0  0
    7.6721   -0.8632   24.6716 H   0  0  0  0  0  0  0  0  0  0  0  0
    0.5347   -0.8383   24.5576 H   0  0  0  0  0  0  0  0  0  0  0  0
    1.4968   -0.7136   23.0536 H   0  0  0  0  0  0  0  0  0  0  0  0
    0.2838    2.8621   24.9271 H   0  0  0  0  0  0  0  0  0  0  0  0
   -0.1951    1.3131   25.6847 H   0  0  0  0  0  0  0  0  0  0  0  0
    6.3903    0.9996   26.0331 H   0  0  0  0  0  0  0  0  0  0  0  0
    7.7894    1.3466   27.0764 H   0  0  0  0  0  0  0  0  0  0  0  0
    2.3668    2.1611   25.2176 H   0  0  0  0  0  0  0  0  0  0  0  0
    2.3536    0.3768   25.4169 H   0  0  0  0  0  0  0  0  0  0  0  0
    4.4435    1.1200   24.2132 H   0  0  0  0  0  0  0  0  0  0  0  0
    3.4258    0.1302   23.1404 H   0  0  0  0  0  0  0  0  0  0  0  0
    1.1581    1.6403   23.0832 H   0  0  0  0  0  0  0  0  0  0  0  0
  1 28  1  0  0  0  0
  1 34  3  0  0  0  0
  2  4  2  0  0  0  0
  2 10  1  0  0  0  0
  3  5  2  0  0  0  0
  3 12  1  0  0  0  0
  4 15  1  0  0  0  0
  5 16  1  0  0  0  0
  6 11  1  0  0  0  0
  6 15  2  0  0  0  0
  7 13  1  0  0  0  0
  7 16  2  0  0  0  0
  8 10  2  0  0  0  0
  8 35  1  0  0  0  0
  9 14  1  0  0  0  0
  9 35  2  0  0  0  0
 10 11  1  0  0  0  0
 11 14  2  0  0  0  0
 12 13  2  0  0  0  0
 12 18  1  0  0  0  0
 13 29  1  0  0  0  0
 14 36  1  0  0  0  0
 15 42  1  0  0  0  0
 16 46  1  0  0  0  0
 17 29  1  0  0  0  0
 17 36  1  0  0  0  0
 17 39  2  0  0  0  0
 18 37  1  0  0  0  0
 19 20  1  0  0  0  0
 19 28  1  0  0  0  0
 20 28  1  0  0  0  0
 21 24  1  0  0  0  0
 21 29  1  0  0  0  0
 22 26  1  0  0  0  0
 22 30  1  0  0  0  0
 23 27  1  0  0  0  0
 23 30  1  0  0  0  0
 24 36  1  0  0  0  0
 25 29  1  0  0  0  0
 25 37  1  0  0  0  0
 26 38  1  0  0  0  0
 27 38  1  0  0  0  0
 28 31  1  0  0  0  0
 30 43  1  0  0  0  0
 30 44  1  0  0  0  0
 31 45  1  0  0  0  0
 32 33  1  0  0  0  0
 32 38  1  0  0  0  0
 33 42  1  0  0  0  0
 37 45  1  0  0  0  0
 40 45  2  0  0  0  0
 41 45  2  0  0  0  0
  2 47  1  0  0  0  0
  3 48  1  0  0  0  0
  4 49  1  0  0  0  0
  5 50  1  0  0  0  0
  6 51  1  0  0  0  0
  7 52  1  0  0  0  0
  8 53  1  0  0  0  0
  9 54  1  0  0  0  0
 18 55  1  0  0  0  0
 18 56  1  0  0  0  0
 19 57  1  0  0  0  0
 19 58  1  0  0  0  0
 20 59  1  0  0  0  0
 20 60  1  0  0  0  0
 21 61  1  0  0  0  0
 21 62  1  0  0  0  0
 22 63  1  0  0  0  0
 22 64  1  0  0  0  0
 23 65  1  0  0  0  0
 23 66  1  0  0  0  0
 24 67  1  0  0  0  0
 24 68  1  0  0  0  0
 25 69  1  0  0  0  0
 25 70  1  0  0  0  0
 26 71  1  0  0  0  0
 26 72  1  0  0  0  0
 27 73  1  0  0  0  0
 27 74  1  0  0  0  0
 31 75  1  0  0  0  0
 31 76  1  0  0  0  0
 32 77  1  0  0  0  0
 32 78  1  0  0  0  0
 33 79  1  0  0  0  0
 33 80  1  0  0  0  0
 38 81  1  0  0  0  0
M  CHG  1  38   1
M  END
> <scaffold>
tetrahydroisoquinoline-5spiro-isoquinoline

> <compound>
EDJ-MED-468565e0-4

> <compound_smiles>
c1cc2cncc(c2cc1OCCN3CCC(CC3)(F)F)N4CCC5(C4=O)CN(Cc6c5cc(cc6)Cl)S(=O)(=O)CC7(CC7)C#N

> <enantiomer_smiles>
c1cc2cncc(c2cc1OCCN3CCC(CC3)(F)F)N4CC[C@]5(C4=O)C[N@@](Cc6c5cc(cc6)Cl)S(=O)(=O)CC7(CC7)C#N

> <clash_score>
0.6748463569841623

> <docking_score>
3.4028234663852886e+38

> <overlap_score>
0.9651639461517334

> <MMFF_internal_energy>
112.02614384185505

> <docked_smiles>
c1cc2cncc(c2cc1OCC[NH+]3CCC(CC3)(F)F)N4CC[C@]5(C4=O)C[N@@](Cc6c5cc(cc6)Cl)S(=O)(=O)CC7(CC7)C#N

$$$$
