LIG(A-1101)
  -OEChem-03272012343D

 32 33  0     1  0  0  0  0  0999 V2000
    6.7380   -4.3620   20.9160 C   0  0  0  0  0  0  0  0  0  0  0  0
    8.0390   -3.6990   20.5190 C   0  0  0  0  0  0  0  0  0  0  0  0
    7.5590   -4.5590   23.2100 C   0  0  0  0  0  0  0  0  0  0  0  0
    8.0330   -3.3810   23.7820 C   0  0  0  0  0  0  0  0  0  0  0  0
    9.0640   -3.4280   24.7080 C   0  0  0  0  0  0  0  0  0  0  0  0
    9.5930   -4.6450   25.0370 C   0  0  0  0  0  0  0  0  0  0  0  0
    9.1520   -5.8190   24.4970 C   0  0  0  0  0  0  0  0  0  0  0  0
    8.1190   -5.7780   23.5760 C   0  0  0  0  0  0  0  0  0  0  0  0
    5.1140   -4.7170   22.7420 C   0  0  2  0  0  0  0  0  0  0  0  0
    4.9640   -4.3570   24.2200 C   0  0  0  0  0  0  0  0  0  0  0  0
    4.2050   -5.1890   24.9280 C   0  0  0  0  0  0  0  0  0  0  0  0
    4.6940   -6.1880   22.5810 C   0  0  0  0  0  0  0  0  0  0  0  0
   10.6110   -4.6920   25.9370 F   0  0  0  0  0  0  0  0  0  0  0  0
    6.4830   -4.5230   22.2610 N   0  0  0  0  0  0  0  0  0  0  0  0
    5.9510   -4.7480   20.0600 O   0  0  0  0  0  0  0  0  0  0  0  0
    2.6560   -7.1010   24.0200 O   0  0  0  0  0  0  0  0  0  0  0  0
    4.9210   -7.7050   24.7510 O   0  0  0  0  0  0  0  0  0  0  0  0
    4.0430   -6.7410   24.1440 S   0  0  0  0  0  0  0  0  0  0  0  0
    8.3090   -3.4620   18.7290 R#  0  0  0  0  0  0  0  0  0  0  0  0
    8.0708   -2.7089   20.9973 H   0  0  0  0  0  0  0  0  0  0  0  0
    8.8625   -4.3186   20.9036 H   0  0  0  0  0  0  0  0  0  0  0  0
    7.5981   -2.4321   23.5047 H   0  0  0  0  0  0  0  0  0  0  0  0
    9.4412   -2.5224   25.1598 H   0  0  0  0  0  0  0  0  0  0  0  0
    9.5995   -6.7596   24.7822 H   0  0  0  0  0  0  0  0  0  0  0  0
    7.7476   -6.6942   23.1412 H   0  0  0  0  0  0  0  0  0  0  0  0
    4.4260   -4.0905   22.1554 H   0  0  0  0  0  0  0  0  0  0  0  0
    5.9672   -4.3430   24.6711 H   0  0  0  0  0  0  0  0  0  0  0  0
    4.5196   -3.3527   24.2830 H   0  0  0  0  0  0  0  0  0  0  0  0
    4.6634   -5.3354   25.9172 H   0  0  0  0  0  0  0  0  0  0  0  0
    3.2060   -4.7447   25.0490 H   0  0  0  0  0  0  0  0  0  0  0  0
    3.9218   -6.2738   21.8023 H   0  0  0  0  0  0  0  0  0  0  0  0
    5.5658   -6.7979   22.3016 H   0  0  0  0  0  0  0  0  0  0  0  0
  1  2  1  0  0  0  0
  1 14  1  0  0  0  0
  1 15  2  0  0  0  0
  3  4  2  0  0  0  0
  3  8  1  0  0  0  0
  3 14  1  0  0  0  0
  4  5  1  0  0  0  0
  5  6  2  0  0  0  0
  6  7  1  0  0  0  0
  6 13  1  0  0  0  0
  7  8  2  0  0  0  0
  9 10  1  0  0  0  0
  9 12  1  0  0  0  0
  9 14  1  0  0  0  0
 10 11  1  0  0  0  0
 11 18  1  0  0  0  0
 12 18  1  0  0  0  0
 16 18  2  0  0  0  0
 17 18  2  0  0  0  0
  2 20  1  0  0  0  0
  2 21  1  0  0  0  0
  4 22  1  0  0  0  0
  5 23  1  0  0  0  0
  7 24  1  0  0  0  0
  8 25  1  0  0  0  0
  9 26  1  0  0  0  0
 10 27  1  0  0  0  0
 10 28  1  0  0  0  0
 11 29  1  0  0  0  0
 11 30  1  0  0  0  0
 12 31  1  0  0  0  0
 12 32  1  0  0  0  0
  2 19  1  0  0  0  0
M  RGP  1  19   1
M  END
$$$$
