LIG(A-1101)
  -OEChem-03292022203D

 30 31  0     1  0  0  0  0  0999 V2000
    6.7450   -3.4880   19.9100 C   0  0  0  0  0  0  0  0  0  0  0  0
    7.3820   -2.7180   18.7850 C   0  0  0  0  0  0  0  0  0  0  0  0
    6.5310   -3.8610   22.3400 C   0  0  0  0  0  0  0  0  0  0  0  0
    7.6460   -4.4730   23.1540 C   0  0  0  0  0  0  0  0  0  0  0  0
    8.5570   -2.2920   22.9330 C   0  0  1  0  0  0  0  0  0  0  0  0
    9.8400   -1.5330   23.1720 C   0  0  0  0  0  0  0  0  0  0  0  0
    9.9790   -0.7790   24.3240 C   0  0  0  0  0  0  0  0  0  0  0  0
   11.1330   -0.0670   24.5750 C   0  0  0  0  0  0  0  0  0  0  0  0
   12.1360   -0.1260   23.6590 C   0  0  0  0  0  0  0  0  0  0  0  0
   12.0540   -0.8540   22.5070 C   0  0  0  0  0  0  0  0  0  0  0  0
   10.8930   -1.5660   22.2700 C   0  0  0  0  0  0  0  0  0  0  0  0
    7.9560   -2.0460   21.5550 C   0  0  0  0  0  0  0  0  0  0  0  0
   13.2710    0.5760   23.9140 F   0  0  0  0  0  0  0  0  0  0  0  0
    7.0780   -3.1500   21.1750 N   0  0  0  0  0  0  0  0  0  0  0  0
    5.9590   -4.3930   19.6590 O   0  0  0  0  0  0  0  0  0  0  0  0
    8.8360   -3.6720   23.1220 O   0  0  0  0  0  0  0  0  0  0  0  0
    8.9530   -3.4960   18.3230 R#  0  0  0  0  0  0  0  0  0  0  0  0
    6.7068   -2.7141   17.9166 H   0  0  0  0  0  0  0  0  0  0  0  0
    7.5680   -1.6835   19.1095 H   0  0  0  0  0  0  0  0  0  0  0  0
    5.8554   -4.6573   21.9943 H   0  0  0  0  0  0  0  0  0  0  0  0
    5.9712   -3.1518   22.9675 H   0  0  0  0  0  0  0  0  0  0  0  0
    7.3117   -4.5710   24.1974 H   0  0  0  0  0  0  0  0  0  0  0  0
    7.8770   -5.4689   22.7479 H   0  0  0  0  0  0  0  0  0  0  0  0
    7.8231   -1.9651   23.6844 H   0  0  0  0  0  0  0  0  0  0  0  0
    9.1699   -0.7476   25.0387 H   0  0  0  0  0  0  0  0  0  0  0  0
   11.2372    0.5214   25.4746 H   0  0  0  0  0  0  0  0  0  0  0  0
   12.8718   -0.8731   21.8018 H   0  0  0  0  0  0  0  0  0  0  0  0
   10.8047   -2.1562   21.3699 H   0  0  0  0  0  0  0  0  0  0  0  0
    7.3752   -1.1120   21.5749 H   0  0  0  0  0  0  0  0  0  0  0  0
    8.7669   -1.9579   20.8169 H   0  0  0  0  0  0  0  0  0  0  0  0
  1  2  1  0  0  0  0
  1 14  1  0  0  0  0
  1 15  2  0  0  0  0
  3  4  1  0  0  0  0
  3 14  1  0  0  0  0
  4 16  1  0  0  0  0
  5  6  1  0  0  0  0
  5 12  1  0  0  0  0
  5 16  1  0  0  0  0
  6  7  2  0  0  0  0
  6 11  1  0  0  0  0
  7  8  1  0  0  0  0
  8  9  2  0  0  0  0
  9 10  1  0  0  0  0
  9 13  1  0  0  0  0
 10 11  2  0  0  0  0
 12 14  1  0  0  0  0
  2 18  1  0  0  0  0
  2 19  1  0  0  0  0
  3 20  1  0  0  0  0
  3 21  1  0  0  0  0
  4 22  1  0  0  0  0
  4 23  1  0  0  0  0
  5 24  1  0  0  0  0
  7 25  1  0  0  0  0
  8 26  1  0  0  0  0
 10 27  1  0  0  0  0
 11 28  1  0  0  0  0
 12 29  1  0  0  0  0
 12 30  1  0  0  0  0
  2 17  1  0  0  0  0
M  RGP  1  17   1
M  END
$$$$
