LIG(A-1201)
  -OEChem-03292022183D

 34 36  0     1  0  0  0  0  0999 V2000
    7.1790   -4.5620   21.2990 N   0  0  0  0  0  0  0  0  0  0  0  0
    7.4380   -2.9880   19.4120 C   0  0  0  0  0  0  0  0  0  0  0  0
    5.6490   -4.5230   19.6640 O   0  0  0  0  0  0  0  0  0  0  0  0
    6.6830   -4.0770   20.1430 C   0  0  0  0  0  0  0  0  0  0  0  0
   13.1790   -0.8060   24.9540 C   0  0  0  0  0  0  0  0  0  0  0  0
   13.7060   -1.8750   25.6660 C   0  0  0  0  0  0  0  0  0  0  0  0
   13.0350   -3.0740   25.7360 C   0  0  0  0  0  0  0  0  0  0  0  0
   11.8210   -3.1800   25.0610 C   0  0  0  0  0  0  0  0  0  0  0  0
    6.3490   -5.4300   22.1430 C   0  0  0  0  0  0  0  0  0  0  0  0
    7.1930   -6.3500   23.0020 C   0  0  0  0  0  0  0  0  0  0  0  0
    8.0570   -5.5390   23.9710 C   0  0  0  0  0  0  0  0  0  0  0  0
    8.4320   -4.1850   23.3590 C   0  0  2  0  0  0  0  0  0  0  0  0
    8.5090   -4.3180   21.8490 C   0  0  0  0  0  0  0  0  0  0  0  0
    9.7030   -3.6000   23.9330 C   0  0  0  0  0  0  0  0  0  0  0  0
   11.2860   -2.1090   24.3360 C   0  0  0  0  0  0  0  0  0  0  0  0
   11.9770   -0.9030   24.2870 C   0  0  0  0  0  0  0  0  0  0  0  0
   10.0680   -2.3770   23.7150 N   0  0  0  0  0  0  0  0  0  0  0  0
   10.7570   -4.5460   24.9570 S   0  0  0  0  0  0  0  0  0  0  0  0
    8.8670   -3.6720   18.5520 R#  0  0  0  0  0  0  0  0  0  0  0  0
    6.7685   -2.5136   18.6794 H   0  0  0  0  0  0  0  0  0  0  0  0
    7.7794   -2.2354   20.1379 H   0  0  0  0  0  0  0  0  0  0  0  0
   13.7249    0.1253   24.9220 H   0  0  0  0  0  0  0  0  0  0  0  0
   14.6542   -1.7640   26.1710 H   0  0  0  0  0  0  0  0  0  0  0  0
   13.4363   -3.9058   26.2959 H   0  0  0  0  0  0  0  0  0  0  0  0
    5.7274   -4.8017   22.7978 H   0  0  0  0  0  0  0  0  0  0  0  0
    5.7006   -6.0405   21.4974 H   0  0  0  0  0  0  0  0  0  0  0  0
    6.5320   -7.0153   23.5769 H   0  0  0  0  0  0  0  0  0  0  0  0
    7.8456   -6.9527   22.3533 H   0  0  0  0  0  0  0  0  0  0  0  0
    7.4954   -5.3714   24.9019 H   0  0  0  0  0  0  0  0  0  0  0  0
    8.9757   -6.1017   24.1932 H   0  0  0  0  0  0  0  0  0  0  0  0
    7.6138   -3.4860   23.5869 H   0  0  0  0  0  0  0  0  0  0  0  0
    9.1694   -5.1590   21.5909 H   0  0  0  0  0  0  0  0  0  0  0  0
    8.9145   -3.3889   21.4220 H   0  0  0  0  0  0  0  0  0  0  0  0
   11.5805   -0.0614   23.7385 H   0  0  0  0  0  0  0  0  0  0  0  0
  1  4  1  0  0  0  0
  1  9  1  0  0  0  0
  1 13  1  0  0  0  0
  2  4  1  0  0  0  0
  3  4  2  0  0  0  0
  5  6  2  0  0  0  0
  5 16  1  0  0  0  0
  6  7  1  0  0  0  0
  7  8  2  0  0  0  0
  8 15  1  0  0  0  0
  8 18  1  0  0  0  0
  9 10  1  0  0  0  0
 10 11  1  0  0  0  0
 11 12  1  0  0  0  0
 12 13  1  0  0  0  0
 12 14  1  0  0  0  0
 14 17  2  0  0  0  0
 14 18  1  0  0  0  0
 15 16  2  0  0  0  0
 15 17  1  0  0  0  0
  2 20  1  0  0  0  0
  2 21  1  0  0  0  0
  5 22  1  0  0  0  0
  6 23  1  0  0  0  0
  7 24  1  0  0  0  0
  9 25  1  0  0  0  0
  9 26  1  0  0  0  0
 10 27  1  0  0  0  0
 10 28  1  0  0  0  0
 11 29  1  0  0  0  0
 11 30  1  0  0  0  0
 12 31  1  0  0  0  0
 13 32  1  0  0  0  0
 13 33  1  0  0  0  0
 16 34  1  0  0  0  0
  2 19  1  0  0  0  0
M  RGP  1  19   1
M  END
$$$$
