LIG(A-1101)
  -OEChem-03292021593D

 31 32  0     0  0  0  0  0  0999 V2000
    6.3990   -5.0700   21.6550 N   0  0  0  0  0  0  0  0  0  0  0  0
    7.6530   -3.4810   20.2250 C   0  0  0  0  0  0  0  0  0  0  0  0
    5.7180   -4.7100   19.5510 O   0  0  0  0  0  0  0  0  0  0  0  0
    6.5220   -4.4770   20.4470 C   0  0  0  0  0  0  0  0  0  0  0  0
    7.2420   -4.8110   22.8230 C   0  0  0  0  0  0  0  0  0  0  0  0
    6.3960   -4.2950   23.9560 C   0  0  0  0  0  0  0  0  0  0  0  0
    4.5000   -5.5840   23.1000 C   0  0  0  0  0  0  0  0  0  0  0  0
    5.3670   -6.0610   21.9620 C   0  0  0  0  0  0  0  0  0  0  0  0
    3.4450   -3.8280   25.5980 C   0  0  0  0  0  0  0  0  0  0  0  0
    2.1350   -3.9400   25.2010 C   0  0  0  0  0  0  0  0  0  0  0  0
    1.4850   -2.6810   25.2530 C   0  0  0  0  0  0  0  0  0  0  0  0
    2.2720   -1.6970   25.7480 C   0  0  0  0  0  0  0  0  0  0  0  0
    5.3460   -5.2780   24.2680 N   0  0  0  0  0  0  0  0  0  0  0  0
    3.8570   -6.3270   25.9340 O   0  0  0  0  0  0  0  0  0  0  0  0
    5.5990   -4.7340   26.6630 O   0  0  0  0  0  0  0  0  0  0  0  0
    4.6030   -5.1290   25.7160 S   0  0  0  0  0  0  0  0  0  0  0  0
    3.8790   -2.2150   25.9790 S   0  0  0  0  0  0  0  0  0  0  0  0
    8.3320   -3.3970   18.5410 R#  0  0  0  0  0  0  0  0  0  0  0  0
    7.2749   -2.4811   20.4843 H   0  0  0  0  0  0  0  0  0  0  0  0
    8.4749   -3.7499   20.9049 H   0  0  0  0  0  0  0  0  0  0  0  0
    7.7360   -5.7442   23.1313 H   0  0  0  0  0  0  0  0  0  0  0  0
    8.0039   -4.0608   22.5647 H   0  0  0  0  0  0  0  0  0  0  0  0
    7.0269   -4.1376   24.8432 H   0  0  0  0  0  0  0  0  0  0  0  0
    5.9314   -3.3420   23.6628 H   0  0  0  0  0  0  0  0  0  0  0  0
    3.9576   -4.6777   22.7927 H   0  0  0  0  0  0  0  0  0  0  0  0
    3.7786   -6.3707   23.3659 H   0  0  0  0  0  0  0  0  0  0  0  0
    4.7409   -6.2197   21.0716 H   0  0  0  0  0  0  0  0  0  0  0  0
    5.8479   -7.0087   22.2457 H   0  0  0  0  0  0  0  0  0  0  0  0
    1.6642   -4.8614   24.8914 H   0  0  0  0  0  0  0  0  0  0  0  0
    0.4664   -2.5232   24.9307 H   0  0  0  0  0  0  0  0  0  0  0  0
    1.9221   -0.6998   25.9706 H   0  0  0  0  0  0  0  0  0  0  0  0
  1  4  1  0  0  0  0
  1  5  1  0  0  0  0
  1  8  1  0  0  0  0
  2  4  1  0  0  0  0
  3  4  2  0  0  0  0
  5  6  1  0  0  0  0
  6 13  1  0  0  0  0
  7  8  1  0  0  0  0
  7 13  1  0  0  0  0
  9 10  2  0  0  0  0
  9 16  1  0  0  0  0
  9 17  1  0  0  0  0
 10 11  1  0  0  0  0
 11 12  2  0  0  0  0
 12 17  1  0  0  0  0
 13 16  1  0  0  0  0
 14 16  2  0  0  0  0
 15 16  2  0  0  0  0
  2 19  1  0  0  0  0
  2 20  1  0  0  0  0
  5 21  1  0  0  0  0
  5 22  1  0  0  0  0
  6 23  1  0  0  0  0
  6 24  1  0  0  0  0
  7 25  1  0  0  0  0
  7 26  1  0  0  0  0
  8 27  1  0  0  0  0
  8 28  1  0  0  0  0
 10 29  1  0  0  0  0
 11 30  1  0  0  0  0
 12 31  1  0  0  0  0
  2 18  1  0  0  0  0
M  RGP  1  18   1
M  END
$$$$
