@<TRIPOS>MOLECULE
LIG(A-1301)
   36    37     0     0     0
SMALL
USER_CHARGES

@<TRIPOS>ATOM
      1 N1          6.9090   -2.5820   20.7850 N.am      1 LIG1301    -0.5041
      2 C1          7.1730   -2.5460   18.3360 C.3       1 LIG1301    -0.0930
      3 O1          5.8820   -4.1460   19.5490 O.2       1 LIG1301    -0.5368
      4 C2          6.5830   -3.1380   19.6020 C.2       1 LIG1301     0.6673
      5 C3          6.6460   -3.2360   22.0590 C.3       1 LIG1301     0.0741
      6 C4          7.6290   -1.3290   20.9900 C.3       1 LIG1301     0.0741
      7 C5          8.9460   -1.6340   21.6600 C.3       1 LIG1301     0.0753
      8 C6         10.0550   -2.6800   23.5200 C.3       1 LIG1301     0.1410
      9 C7         11.0250   -1.5460   23.5600 C.3       1 LIG1301    -0.0482
     10 C8         12.1160   -1.3030   22.7170 C.3       1 LIG1301    -0.0850
     11 C9         12.8060   -0.1250   23.0980 C.3       1 LIG1301    -0.0846
     12 C10        12.1310    0.5950   24.0200 C.3       1 LIG1301    -0.0023
     13 C11         7.9620   -3.5390   22.7340 C.3       1 LIG1301     0.0753
     14 N2          8.7510   -2.3200   22.9410 N.4       1 LIG1301    -0.6861
     15 S1         10.8980   -0.3170   24.7520 S.3       1 LIG1301    -0.2591
     16 H1          6.5357   -2.7976   17.4754 H         1 LIG1301     0.0810
     17 H2          7.2422   -1.4525   18.4337 H         1 LIG1301     0.0810
     18 H3          6.0473   -2.5710   22.6988 H         1 LIG1301     0.0965
     19 H4          6.0952   -4.1724   21.8866 H         1 LIG1301     0.0965
     20 H5          7.8106   -0.8431   20.0200 H         1 LIG1301     0.0965
     21 H6          7.0341   -0.6602   21.6295 H         1 LIG1301     0.0965
     22 H7          9.5436   -2.2773   20.9974 H         1 LIG1301     0.1091
     23 H8          9.4835   -0.6909   21.8378 H         1 LIG1301     0.1091
     24 H9         10.4915   -3.4898   22.9170 H         1 LIG1301     0.1137
     25 H10         9.8927   -3.0352   24.5484 H         1 LIG1301     0.1137
     26 H11        10.3752   -0.9646   22.8894 H         1 LIG1301     0.0722
     27 H12        12.8075   -2.1568   22.7700 H         1 LIG1301     0.0637
     28 H13        11.7533   -1.1884   21.6849 H         1 LIG1301     0.0637
     29 H14        13.7825   -0.4084   23.5176 H         1 LIG1301     0.0741
     30 H15        12.9578    0.4992   22.2051 H         1 LIG1301     0.0741
     31 H16        12.8351    0.9297   24.7960 H         1 LIG1301     0.0917
     32 H17        11.6825    1.4713   23.5292 H         1 LIG1301     0.0917
     33 H18         7.7643   -4.0072   23.7095 H         1 LIG1301     0.1091
     34 H19         8.5359   -4.2339   22.1034 H         1 LIG1301     0.1091
     35 H20         8.2656   -1.7140   23.5712 H         1 LIG1301     0.4489
     36 Du1         8.8220   -3.2440   18.1000 Du        1 LIG1301     0.0000
@<TRIPOS>BOND
     1    1    4 am
     2    1    5 1
     3    1    6 1
     4    2    4 1
     5    3    4 2
     6    5   13 1
     7    6    7 1
     8    7   14 1
     9    8    9 1
    10    8   14 1
    11    9   10 1
    12    9   15 1
    13   10   11 1
    14   11   12 1
    15   12   15 1
    16   13   14 1
    17    2   16 1
    18    2   17 1
    19    5   18 1
    20    5   19 1
    21    6   20 1
    22    6   21 1
    23    7   22 1
    24    7   23 1
    25    8   24 1
    26    8   25 1
    27    9   26 1
    28   10   27 1
    29   10   28 1
    30   11   29 1
    31   11   30 1
    32   12   31 1
    33   12   32 1
    34   13   33 1
    35   13   34 1
    36   14   35 1
    37    2   36 1
