LIG(A-1101)
  -OEChem-03272010393D

 32 33  0     0  0  0  0  0  0999 V2000
    6.9010   -2.6410   20.9750 N   0  0  0  0  0  0  0  0  0  0  0  0
    7.3120   -2.5040   18.5340 C   0  0  0  0  0  0  0  0  0  0  0  0
    5.7870   -3.9990   19.5790 O   0  0  0  0  0  0  0  0  0  0  0  0
    6.5980   -3.0940   19.7380 C   0  0  0  0  0  0  0  0  0  0  0  0
    6.4330   -3.3050   22.1890 C   0  0  0  0  0  0  0  0  0  0  0  0
    7.7770   -1.5190   21.3060 C   0  0  0  0  0  0  0  0  0  0  0  0
    8.9550   -2.0120   22.1180 C   0  0  0  0  0  0  0  0  0  0  0  0
    9.6800   -3.1640   24.1240 C   0  0  0  0  0  0  0  0  0  0  0  0
    9.3510   -4.2460   25.1090 C   0  0  0  0  0  0  0  0  0  0  0  0
    9.6570   -5.6030   24.9980 C   0  0  0  0  0  0  0  0  0  0  0  0
    9.3350   -6.3400   26.1610 C   0  0  0  0  0  0  0  0  0  0  0  0
    8.5510   -5.5710   27.0400 C   0  0  0  0  0  0  0  0  0  0  0  0
    7.6200   -3.7970   22.9830 C   0  0  0  0  0  0  0  0  0  0  0  0
    8.5170   -2.6920   23.3430 N   0  3  0  0  0  0  0  0  0  0  0  0
    8.4850   -3.9240   26.5770 S   0  0  0  0  0  0  0  0  0  0  0  0
    7.6310   -6.1570   28.5620 Br  0  0  0  0  0  0  0  0  0  0  0  0
    8.8940   -3.3490   18.2510 R#  0  0  0  0  0  0  0  0  0  0  0  0
    6.6760   -2.6200   17.6440 H   0  0  0  0  0  0  0  0  0  0  0  0
    7.5002   -1.4352   18.7134 H   0  0  0  0  0  0  0  0  0  0  0  0
    5.8549   -2.5933   22.7967 H   0  0  0  0  0  0  0  0  0  0  0  0
    5.7944   -4.1584   21.9173 H   0  0  0  0  0  0  0  0  0  0  0  0
    8.1417   -1.0541   20.3782 H   0  0  0  0  0  0  0  0  0  0  0  0
    7.2146   -0.7768   21.8915 H   0  0  0  0  0  0  0  0  0  0  0  0
    9.5400   -2.7160   21.5080 H   0  0  0  0  0  0  0  0  0  0  0  0
    9.5850   -1.1529   22.3918 H   0  0  0  0  0  0  0  0  0  0  0  0
   10.0972   -2.3086   24.6755 H   0  0  0  0  0  0  0  0  0  0  0  0
   10.4340   -3.5513   23.4229 H   0  0  0  0  0  0  0  0  0  0  0  0
   10.0946   -6.0447   24.1149 H   0  0  0  0  0  0  0  0  0  0  0  0
    9.6487   -7.3562   26.3490 H   0  0  0  0  0  0  0  0  0  0  0  0
    7.2599   -4.2803   23.9032 H   0  0  0  0  0  0  0  0  0  0  0  0
    8.1770   -4.5281   22.3786 H   0  0  0  0  0  0  0  0  0  0  0  0
    8.0065   -2.0391   23.9025 H   0  0  0  0  0  0  0  0  0  0  0  0
  1  4  1  0  0  0  0
  1  5  1  0  0  0  0
  1  6  1  0  0  0  0
  2  4  1  0  0  0  0
  3  4  2  0  0  0  0
  5 13  1  0  0  0  0
  6  7  1  0  0  0  0
  7 14  1  0  0  0  0
  8  9  1  0  0  0  0
  8 14  1  0  0  0  0
  9 10  2  0  0  0  0
  9 15  1  0  0  0  0
 10 11  1  0  0  0  0
 11 12  2  0  0  0  0
 12 15  1  0  0  0  0
 12 16  1  0  0  0  0
 13 14  1  0  0  0  0
  2 18  1  0  0  0  0
  2 19  1  0  0  0  0
  5 20  1  0  0  0  0
  5 21  1  0  0  0  0
  6 22  1  0  0  0  0
  6 23  1  0  0  0  0
  7 24  1  0  0  0  0
  7 25  1  0  0  0  0
  8 26  1  0  0  0  0
  8 27  1  0  0  0  0
 10 28  1  0  0  0  0
 11 29  1  0  0  0  0
 13 30  1  0  0  0  0
 13 31  1  0  0  0  0
 14 32  1  0  0  0  0
  2 17  1  0  0  0  0
M  CHG  1  14   1
M  RGP  1  17   1
M  END
$$$$
