@<TRIPOS>MOLECULE
LIG(A-1101)
   20    20     0     0     0
SMALL
USER_CHARGES

@<TRIPOS>ATOM
      1 C1          8.4730   -0.0980   27.4200 C.3       1 LIG1101    -0.1131
      2 C2          9.0280   -0.6430   26.1230 C.3       1 LIG1101     0.2198
      3 C3         10.9870   -0.2750   24.6110 C.ar      1 LIG1101     0.6982
      4 C4         10.6330   -1.4060   23.8860 C.ar      1 LIG1101    -0.3308
      5 C5         11.4200   -1.8170   22.8290 C.ar      1 LIG1101    -0.0089
      6 C6         12.5500   -1.0820   22.5200 C.ar      1 LIG1101    -0.2136
      7 C7         13.4420   -1.5190   21.3660 C.1       1 LIG1101     0.2505
      8 C8         12.8470    0.0410   23.2900 C.ar      1 LIG1101     0.4899
      9 N1         10.1620    0.1630   25.7100 N.pl3     1 LIG1101    -0.8782
     10 N2         14.1220   -1.8200   20.5080 N.1       1 LIG1101    -0.3781
     11 N3         12.0680    0.4160   24.3030 N.ar      1 LIG1101    -0.7409
     12 H1          7.6131   -0.7068   27.7360 H         1 LIG1101     0.0491
     13 H2          9.2521   -0.1336   28.1957 H         1 LIG1101     0.0491
     14 H3          8.1503    0.9431   27.2719 H         1 LIG1101     0.0491
     15 H4          9.3514   -1.6840   26.2704 H         1 LIG1101     0.0435
     16 H5          8.2497   -0.6073   25.3465 H         1 LIG1101     0.0435
     17 H6          9.7450   -1.9618   24.1485 H         1 LIG1101     0.1466
     18 H7         11.1588   -2.6940   22.2554 H         1 LIG1101     0.1460
     19 H8         13.7290    0.6203   23.0600 H         1 LIG1101     0.0319
     20 H9         10.5151    0.8599   26.3342 H         1 LIG1101     0.4467
@<TRIPOS>BOND
     1    1    2 1
     2    2    9 1
     3    3    4 ar
     4    3    9 1
     5    3   11 ar
     6    4    5 ar
     7    5    6 ar
     8    6    7 1
     9    6    8 ar
    10    7   10 3
    11    8   11 ar
    12    1   12 1
    13    1   13 1
    14    1   14 1
    15    2   15 1
    16    2   16 1
    17    4   17 1
    18    5   18 1
    19    8   19 1
    20    9   20 1
