@<TRIPOS>MOLECULE
LIG(A-1101)
   34    35     0     0     0
SMALL
USER_CHARGES

@<TRIPOS>ATOM
      1 N1          5.4050   -5.5300   24.3490 N.pl3     1 LIG1101    -0.7874
      2 C1          2.8460   -1.9600   25.8170 C.ar      1 LIG1101     0.1022
      3 O1          3.9820   -6.7730   25.9260 O.2       1 LIG1101    -0.6415
      4 C2          1.5060   -2.2500   25.7290 C.ar      1 LIG1101    -0.1042
      5 C3          6.5550   -4.4450   20.5810 C.2       1 LIG1101     0.6603
      6 C4          7.8210   -3.6570   20.3730 C.3       1 LIG1101    -0.1010
      7 C5          1.1370   -3.5790   25.6710 C.ar      1 LIG1101    -0.1295
      8 C6          2.0980   -4.5790   25.6940 C.ar      1 LIG1101    -0.0399
      9 C7          3.4410   -4.2450   25.7790 C.ar      1 LIG1101    -0.3452
     10 C8          3.8330   -2.9190   25.8420 C.ar      1 LIG1101    -0.0579
     11 C9          6.4410   -4.5100   24.1200 C.3       1 LIG1101     0.1893
     12 C10         7.2730   -4.9000   22.9270 C.3       1 LIG1101     0.0899
     13 C11         5.3980   -6.1220   22.0010 C.3       1 LIG1101     0.0899
     14 C12         4.5420   -5.7140   23.1710 C.3       1 LIG1101     0.1893
     15 F1          3.2220   -0.6640   25.8750 F         1 LIG1101    -0.1361
     16 N2          6.4200   -5.1060   21.7550 N.am      1 LIG1101    -0.4759
     17 O2          5.6560   -5.1600   26.7720 O.2       1 LIG1101    -0.6415
     18 O3          5.7050   -4.4820   19.7010 O.2       1 LIG1101    -0.6052
     19 S1          4.6630   -5.5210   25.8100 S.o2      1 LIG1101     1.4887
     20 H1          0.7656   -1.4641   25.7060 H         1 LIG1101     0.1563
     21 H2          7.6973   -2.6713   20.8453 H         1 LIG1101     0.0683
     22 H3          8.6481   -4.1953   20.8590 H         1 LIG1101     0.0683
     23 H4          0.0915   -3.8423   25.6072 H         1 LIG1101     0.1479
     24 H5          1.8006   -5.6161   25.6458 H         1 LIG1101     0.1662
     25 H6          4.8760   -2.6466   25.9084 H         1 LIG1101     0.1557
     26 H7          5.9629   -3.5374   23.9317 H         1 LIG1101     0.0558
     27 H8          7.0855   -4.4359   25.0083 H         1 LIG1101     0.0558
     28 H9          7.9965   -4.0997   22.7125 H         1 LIG1101     0.0675
     29 H10         7.8128   -5.8320   23.1507 H         1 LIG1101     0.0675
     30 H11         5.8849   -7.0831   22.2227 H         1 LIG1101     0.0675
     31 H12         4.7666   -6.2285   21.1066 H         1 LIG1101     0.0675
     32 H13         4.0256   -4.7706   22.9401 H         1 LIG1101     0.0558
     33 H14         3.7985   -6.4982   23.3763 H         1 LIG1101     0.0558
     34 Du1         8.2500   -3.4050   18.6280 Du        1 LIG1101     0.0000
@<TRIPOS>BOND
     1    1   11 1
     2    1   14 1
     3    1   19 1
     4    2    4 ar
     5    2   10 ar
     6    2   15 1
     7    3   19 2
     8    4    7 ar
     9    5    6 1
    10    5   16 am
    11    5   18 2
    12    7    8 ar
    13    8    9 ar
    14    9   10 ar
    15    9   19 1
    16   11   12 1
    17   12   16 1
    18   13   14 1
    19   13   16 1
    20   17   19 2
    21    4   20 1
    22    6   21 1
    23    6   22 1
    24    7   23 1
    25    8   24 1
    26   10   25 1
    27   11   26 1
    28   11   27 1
    29   12   28 1
    30   12   29 1
    31   13   30 1
    32   13   31 1
    33   14   32 1
    34   14   33 1
    35    6   34 1
