LIG(A-1201)
  -OEChem-03292022193D

 30 29  0     1  0  0  0  0  0999 V2000
    1.3830   -8.6430   21.0970 C   0  0  0  0  0  0  0  0  0  0  0  0
    1.6250   -7.3870   21.8720 C   0  0  0  0  0  0  0  0  0  0  0  0
    3.1500   -6.1080   23.2980 C   0  0  1  0  0  0  0  0  0  0  0  0
    2.8460   -6.4030   24.7690 C   0  0  0  0  0  0  0  0  0  0  0  0
    3.1100   -7.8560   25.1040 C   0  0  0  0  0  0  0  0  0  0  0  0
    4.5720   -5.5530   23.1400 C   0  0  0  0  0  0  0  0  0  0  0  0
    6.6610   -5.4930   21.8310 C   0  0  0  0  0  0  0  0  0  0  0  0
    6.6600   -5.1360   20.3490 C   0  0  0  0  0  0  0  0  0  0  0  0
    5.6890   -5.6380   19.6220 C   0  0  0  0  0  0  0  0  0  0  0  0
    2.8250   -7.2550   22.4520 N   0  0  0  0  0  0  0  0  0  0  0  0
    2.2770   -8.4380   25.9530 N   0  0  0  0  0  0  0  0  0  0  0  0
    5.4250   -6.1380   22.2850 N   0  0  0  0  0  0  0  0  0  0  0  0
    0.7650   -6.5120   21.9520 O   0  0  0  0  0  0  0  0  0  0  0  0
    4.0600   -8.4470   24.6020 O   0  0  0  0  0  0  0  0  0  0  0  0
    4.8920   -4.5660   23.7990 O   0  0  0  0  0  0  0  0  0  0  0  0
    7.8670   -4.1740   19.4380 R#  0  0  0  0  0  0  0  0  0  0  0  0
    0.3739   -8.6162   20.6600 H   0  0  0  0  0  0  0  0  0  0  0  0
    2.1286   -8.7268   20.2926 H   0  0  0  0  0  0  0  0  0  0  0  0
    1.4688   -9.5102   21.7683 H   0  0  0  0  0  0  0  0  0  0  0  0
    2.4718   -5.2932   23.0045 H   0  0  0  0  0  0  0  0  0  0  0  0
    3.4838   -5.7678   25.4012 H   0  0  0  0  0  0  0  0  0  0  0  0
    1.7886   -6.1754   24.9691 H   0  0  0  0  0  0  0  0  0  0  0  0
    7.5001   -6.1780   22.0222 H   0  0  0  0  0  0  0  0  0  0  0  0
    6.8029   -4.5687   22.4103 H   0  0  0  0  0  0  0  0  0  0  0  0
    5.6624   -5.4572   18.5576 H   0  0  0  0  0  0  0  0  0  0  0  0
    4.9168   -6.2318   20.0883 H   0  0  0  0  0  0  0  0  0  0  0  0
    3.5177   -7.9605   22.3022 H   0  0  0  0  0  0  0  0  0  0  0  0
    2.4107   -9.3958   26.2074 H   0  0  0  0  0  0  0  0  0  0  0  0
    1.5143   -7.9197   26.3398 H   0  0  0  0  0  0  0  0  0  0  0  0
    5.2085   -7.0525   21.9431 H   0  0  0  0  0  0  0  0  0  0  0  0
  1  2  1  0  0  0  0
  2 10  1  0  0  0  0
  2 13  2  0  0  0  0
  3  4  1  0  0  0  0
  3  6  1  0  0  0  0
  3 10  1  0  0  0  0
  4  5  1  0  0  0  0
  5 11  1  0  0  0  0
  5 14  2  0  0  0  0
  6 12  1  0  0  0  0
  6 15  2  0  0  0  0
  7  8  1  0  0  0  0
  7 12  1  0  0  0  0
  8  9  2  0  0  0  0
  1 17  1  0  0  0  0
  1 18  1  0  0  0  0
  1 19  1  0  0  0  0
  3 20  1  0  0  0  0
  4 21  1  0  0  0  0
  4 22  1  0  0  0  0
  7 23  1  0  0  0  0
  7 24  1  0  0  0  0
  9 25  1  0  0  0  0
  9 26  1  0  0  0  0
 10 27  1  0  0  0  0
 11 28  1  0  0  0  0
 11 29  1  0  0  0  0
 12 30  1  0  0  0  0
  8 16  1  0  0  0  0
M  RGP  1  16   1
M  END
$$$$
