@<TRIPOS>MOLECULE
LIG(A-1101)
   40    41     0     0     0
SMALL
USER_CHARGES

@<TRIPOS>ATOM
      1 N1          7.4370   -2.4900   23.7050 N.pl3     1 LIG1101    -0.8008
      2 C1          6.0340   -5.1920   29.0800 C.3       1 LIG1101    -0.0551
      3 O1          8.5950   -1.0530   25.3590 O.2       1 LIG1101    -0.6568
      4 C2          7.0470   -4.8150   28.0280 C.ar      1 LIG1101    -0.1061
      5 C3          6.7140   -4.1990   22.1800 C.3       1 LIG1101     0.0880
      6 C4          6.2850   -3.3160   23.3190 C.3       1 LIG1101     0.1947
      7 C5          6.6480   -3.5230   19.8180 C.2       1 LIG1101     0.6603
      8 C6          7.2240   -2.6780   18.7140 C.3       1 LIG1101    -0.1023
      9 C7          8.1940   -5.5660   27.8410 C.ar      1 LIG1101    -0.0633
     10 C8          9.1270   -5.2240   26.8770 C.ar      1 LIG1101    -0.1604
     11 C9          8.9420   -4.1120   26.0600 C.ar      1 LIG1101     0.0537
     12 C10         9.9930   -3.8010   25.0290 C.3       1 LIG1101    -0.0989
     13 C11         7.7830   -3.3490   26.2560 C.ar      1 LIG1101    -0.3713
     14 C12         6.8490   -3.7050   27.2190 C.ar      1 LIG1101    -0.0271
     15 C13         7.8540   -1.5980   22.6120 C.3       1 LIG1101     0.1947
     16 C14         8.2400   -2.4420   21.4230 C.3       1 LIG1101     0.0880
     17 N2          7.1710   -3.3790   21.0570 N.am      1 LIG1101    -0.4748
     18 O2          6.1610   -1.4490   25.5430 O.2       1 LIG1101    -0.6568
     19 O3          5.7570   -4.3250   19.5660 O.2       1 LIG1101    -0.6074
     20 S1          7.4740   -1.9320   25.2450 S.o2      1 LIG1101     1.4993
     21 H1          6.5116   -5.1793   30.0708 H         1 LIG1101     0.0489
     22 H2          5.2035   -4.4709   29.0642 H         1 LIG1101     0.0489
     23 H3          5.6478   -6.2008   28.8721 H         1 LIG1101     0.0489
     24 H4          7.5351   -4.8507   22.5133 H         1 LIG1101     0.0622
     25 H5          5.8631   -4.8171   21.8575 H         1 LIG1101     0.0622
     26 H6          5.4526   -2.6716   23.0000 H         1 LIG1101     0.0577
     27 H7          5.9649   -3.9335   24.1712 H         1 LIG1101     0.0577
     28 H8          6.5364   -2.6803   17.8554 H         1 LIG1101     0.0671
     29 H9          7.3572   -1.6473   19.0743 H         1 LIG1101     0.0671
     30 H10         8.3647   -6.4353   28.4587 H         1 LIG1101     0.1378
     31 H11        10.0130   -5.8298   26.7568 H         1 LIG1101     0.1401
     32 H12        10.7962   -4.5504   25.0858 H         1 LIG1101     0.0657
     33 H13         9.5410   -3.8235   24.0264 H         1 LIG1101     0.0657
     34 H14        10.4101   -2.8014   25.2208 H         1 LIG1101     0.0657
     35 H15         5.9559   -3.1100   27.3404 H         1 LIG1101     0.1670
     36 H16         7.0221   -0.9320   22.3393 H         1 LIG1101     0.0577
     37 H17         8.7159   -0.9951   22.9340 H         1 LIG1101     0.0577
     38 H18         8.4445   -1.7815   20.5674 H         1 LIG1101     0.0622
     39 H19         9.1468   -3.0135   21.6700 H         1 LIG1101     0.0622
     40 Du1         8.8300   -3.3500   18.2020 Du        1 LIG1101     0.0000
@<TRIPOS>BOND
     1    1    6 1
     2    1   15 1
     3    1   20 1
     4    2    4 1
     5    3   20 2
     6    4    9 ar
     7    4   14 ar
     8    5    6 1
     9    5   17 1
    10    7    8 1
    11    7   17 am
    12    7   19 2
    13    9   10 ar
    14   10   11 ar
    15   11   12 1
    16   11   13 ar
    17   13   14 ar
    18   13   20 1
    19   15   16 1
    20   16   17 1
    21   18   20 2
    22    2   21 1
    23    2   22 1
    24    2   23 1
    25    5   24 1
    26    5   25 1
    27    6   26 1
    28    6   27 1
    29    8   28 1
    30    8   29 1
    31    9   30 1
    32   10   31 1
    33   12   32 1
    34   12   33 1
    35   12   34 1
    36   14   35 1
    37   15   36 1
    38   15   37 1
    39   16   38 1
    40   16   39 1
    41    8   40 1
