LIG(A-1101)
  -OEChem-03272012163D

 33 34  0     0  0  0  0  0  0999 V2000
    8.5480    0.6090   24.9100 N   0  0  0  0  0  0  0  0  0  0  0  0
    7.8020    1.3710   24.0090 C   0  0  0  0  0  0  0  0  0  0  0  0
    8.2740    2.3700   23.4420 O   0  0  0  0  0  0  0  0  0  0  0  0
    9.9330    0.9400   25.2340 C   0  0  0  0  0  0  0  0  0  0  0  0
    4.1460    0.2620   24.7280 C   0  0  0  0  0  0  0  0  0  0  0  0
    4.3140    0.9600   22.4570 C   0  0  0  0  0  0  0  0  0  0  0  0
    5.7100    1.5670   22.7000 C   0  0  0  0  0  0  0  0  0  0  0  0
   10.8510    0.3180   24.2200 C   0  0  0  0  0  0  0  0  0  0  0  0
   12.0140    0.9790   23.8340 C   0  0  0  0  0  0  0  0  0  0  0  0
   12.8610    0.4010   22.8910 C   0  0  0  0  0  0  0  0  0  0  0  0
   12.5240   -0.8340   22.3280 C   0  0  0  0  0  0  0  0  0  0  0  0
   13.3600   -1.4060   21.3430 C   0  0  0  0  0  0  0  0  0  0  0  0
   11.3650   -1.5030   22.7140 C   0  0  0  0  0  0  0  0  0  0  0  0
   10.5300   -0.9260   23.6620 C   0  0  0  0  0  0  0  0  0  0  0  0
    5.5790    0.7590   25.0280 C   0  0  0  0  0  0  0  0  0  0  0  0
   14.0610   -1.8410   20.5400 N   0  0  0  0  0  0  0  0  0  0  0  0
    6.4320    0.8740   23.8000 N   0  0  0  0  0  0  0  0  0  0  0  0
    3.5710    0.9920   23.6590 O   0  0  0  0  0  0  0  0  0  0  0  0
    8.1227   -0.1846   25.3451 H   0  0  0  0  0  0  0  0  0  0  0  0
   10.0607    2.0325   25.2217 H   0  0  0  0  0  0  0  0  0  0  0  0
   10.1772    0.5535   26.2345 H   0  0  0  0  0  0  0  0  0  0  0  0
    4.1837   -0.8035   24.4572 H   0  0  0  0  0  0  0  0  0  0  0  0
    3.5249    0.3902   25.6268 H   0  0  0  0  0  0  0  0  0  0  0  0
    3.7895    1.5435   21.6860 H   0  0  0  0  0  0  0  0  0  0  0  0
    4.4206   -0.0815   22.1194 H   0  0  0  0  0  0  0  0  0  0  0  0
    6.3012    1.4802   21.7765 H   0  0  0  0  0  0  0  0  0  0  0  0
    5.5952    2.6288   22.9635 H   0  0  0  0  0  0  0  0  0  0  0  0
   12.2591    1.9384   24.2650 H   0  0  0  0  0  0  0  0  0  0  0  0
   13.7710    0.9028   22.5970 H   0  0  0  0  0  0  0  0  0  0  0  0
   11.1181   -2.4609   22.2805 H   0  0  0  0  0  0  0  0  0  0  0  0
    9.6304   -1.4381   23.9699 H   0  0  0  0  0  0  0  0  0  0  0  0
    5.5137    1.7492   25.5027 H   0  0  0  0  0  0  0  0  0  0  0  0
    6.0570    0.0510   25.7210 H   0  0  0  0  0  0  0  0  0  0  0  0
  1  2  1  0  0  0  0
  1  4  1  0  0  0  0
  2  3  2  0  0  0  0
  2 17  1  0  0  0  0
  4  8  1  0  0  0  0
  5 15  1  0  0  0  0
  5 18  1  0  0  0  0
  6  7  1  0  0  0  0
  6 18  1  0  0  0  0
  7 17  1  0  0  0  0
  8  9  2  0  0  0  0
  8 14  1  0  0  0  0
  9 10  1  0  0  0  0
 10 11  2  0  0  0  0
 11 12  1  0  0  0  0
 11 13  1  0  0  0  0
 12 16  3  0  0  0  0
 13 14  2  0  0  0  0
 15 17  1  0  0  0  0
  1 19  1  0  0  0  0
  4 20  1  0  0  0  0
  4 21  1  0  0  0  0
  5 22  1  0  0  0  0
  5 23  1  0  0  0  0
  6 24  1  0  0  0  0
  6 25  1  0  0  0  0
  7 26  1  0  0  0  0
  7 27  1  0  0  0  0
  9 28  1  0  0  0  0
 10 29  1  0  0  0  0
 13 30  1  0  0  0  0
 14 31  1  0  0  0  0
 15 32  1  0  0  0  0
 15 33  1  0  0  0  0
M  END
$$$$
