@<TRIPOS>MOLECULE
LIG(A-1101)
   39    40     0     0     0
SMALL
USER_CHARGES

@<TRIPOS>ATOM
      1 N1          6.7690   -4.2560   21.4030 N.am      1 LIG1101    -0.4750
      2 C1          6.8570   -3.0210   19.2750 C.3       1 LIG1101    -0.1015
      3 O1          5.4850   -4.9040   19.6590 O.2       1 LIG1101    -0.6119
      4 C2          6.3150   -4.1360   20.1320 C.2       1 LIG1101     0.6615
      5 C3          7.0460   -4.7320   29.1990 C.3       1 LIG1101    -0.0779
      6 C4          5.6060   -4.3430   28.9100 C.3       1 LIG1101    -0.0986
      7 C5          5.5130   -3.1880   27.9270 C.3       1 LIG1101     0.0932
      8 C6          7.6890   -3.3490   22.1040 C.3       1 LIG1101     0.0915
      9 C7          7.0030   -2.7450   23.3130 C.3       1 LIG1101    -0.0954
     10 C8          6.4670   -3.8470   24.2350 C.3       1 LIG1101    -0.1297
     11 C9          5.5580   -4.7750   23.4460 C.3       1 LIG1101    -0.0954
     12 C10         6.2990   -5.3480   22.2630 C.3       1 LIG1101     0.0915
     13 C11         5.7570   -3.2940   25.4510 C.2       1 LIG1101     0.6670
     14 C12         7.6910   -3.7900   27.0000 C.3       1 LIG1101     0.0932
     15 C13         7.7690   -5.0060   27.8950 C.3       1 LIG1101    -0.0986
     16 N2          6.2960   -3.4370   26.7080 N.am      1 LIG1101    -0.4770
     17 O2          4.6740   -2.7310   25.3100 O.2       1 LIG1101    -0.6073
     18 H1          6.1374   -2.8061   18.4712 H         1 LIG1101     0.0655
     19 H2          6.9897   -2.1240   19.8978 H         1 LIG1101     0.0655
     20 H3          7.5479   -3.9100   29.7304 H         1 LIG1101     0.0432
     21 H4          7.0626   -5.6369   29.8242 H         1 LIG1101     0.0432
     22 H5          5.0817   -5.2124   28.4866 H         1 LIG1101     0.0494
     23 H6          5.1225   -4.0466   29.8525 H         1 LIG1101     0.0494
     24 H7          4.4588   -3.0430   27.6483 H         1 LIG1101     0.0535
     25 H8          5.8925   -2.2770   28.4128 H         1 LIG1101     0.0535
     26 H9          8.5755   -3.9117   22.4318 H         1 LIG1101     0.0554
     27 H10         7.9976   -2.5441   21.4207 H         1 LIG1101     0.0554
     28 H11         7.7253   -2.1285   23.8682 H         1 LIG1101     0.0653
     29 H12         6.1657   -2.1157   22.9769 H         1 LIG1101     0.0653
     30 H13         7.3273   -4.4364   24.5850 H         1 LIG1101     0.0584
     31 H14         5.2230   -5.5958   24.0973 H         1 LIG1101     0.0653
     32 H15         4.6841   -4.2104   23.0887 H         1 LIG1101     0.0653
     33 H16         7.1611   -5.9316   22.6183 H         1 LIG1101     0.0554
     34 H17         5.6249   -6.0016   21.6899 H         1 LIG1101     0.0554
     35 H18         8.1784   -2.9418   27.5030 H         1 LIG1101     0.0535
     36 H19         8.2124   -4.0050   26.0556 H         1 LIG1101     0.0535
     37 H20         8.8237   -5.2383   28.1042 H         1 LIG1101     0.0494
     38 H21         7.2983   -5.8621   27.3895 H         1 LIG1101     0.0494
     39 Du1         8.4550   -3.4660   18.5330 Du        1 LIG1101     0.0000
@<TRIPOS>BOND
     1    1    4 am
     2    1    8 1
     3    1   12 1
     4    2    4 1
     5    3    4 2
     6    5    6 1
     7    5   15 1
     8    6    7 1
     9    7   16 1
    10    8    9 1
    11    9   10 1
    12   10   11 1
    13   10   13 1
    14   11   12 1
    15   13   16 am
    16   13   17 2
    17   14   15 1
    18   14   16 1
    19    2   18 1
    20    2   19 1
    21    5   20 1
    22    5   21 1
    23    6   22 1
    24    6   23 1
    25    7   24 1
    26    7   25 1
    27    8   26 1
    28    8   27 1
    29    9   28 1
    30    9   29 1
    31   10   30 1
    32   11   31 1
    33   11   32 1
    34   12   33 1
    35   12   34 1
    36   14   35 1
    37   14   36 1
    38   15   37 1
    39   15   38 1
    40    2   39 1
