LIG(A-701)
  -OEChem-03272010453D

 31 32  0     1  0  0  0  0  0999 V2000
   25.8390    4.8250   13.3550 C   0  0  0  0  0  0  0  0  0  0  0  0
   25.4140    4.4510   11.9300 C   0  0  0  0  0  0  0  0  0  0  0  0
   25.1590    5.4190   10.9640 C   0  0  0  0  0  0  0  0  0  0  0  0
   24.7920    5.0540    9.6840 C   0  0  0  0  0  0  0  0  0  0  0  0
   24.6750    3.7200    9.3580 C   0  0  0  0  0  0  0  0  0  0  0  0
   23.0540    2.6680    7.7360 C   0  0  0  0  0  0  0  0  0  0  0  0
   22.7440    2.3030    6.2700 C   0  0  2  0  0  0  0  0  0  0  0  0
   23.1510    1.1210    6.0300 C   0  0  0  0  0  0  0  0  0  0  0  0
   23.8060    1.1750    4.6640 C   0  0  0  0  0  0  0  0  0  0  0  0
   24.4820    2.5330    4.7510 C   0  0  0  0  0  0  0  0  0  0  0  0
   24.9370    2.7470   10.3040 C   0  0  0  0  0  0  0  0  0  0  0  0
   25.3050    3.1100   11.5900 C   0  0  0  0  0  0  0  0  0  0  0  0
   25.8640    6.1990   13.8180 N   0  0  0  0  0  0  0  0  0  0  0  0
   24.3000    3.3520    8.0160 N   0  0  0  0  0  0  0  0  0  0  0  0
   26.1780    3.9690   14.1090 O   0  0  0  0  0  0  0  0  0  0  0  0
   22.3040    2.3930    8.6160 O   0  0  0  0  0  0  0  0  0  0  0  0
   23.5800    3.2660    5.2730 O   0  0  0  0  0  0  0  0  0  0  0  0
   25.2489    6.4650   11.2174 H   0  0  0  0  0  0  0  0  0  0  0  0
   24.5971    5.8121    8.9399 H   0  0  0  0  0  0  0  0  0  0  0  0
   21.6711    2.4492    6.0764 H   0  0  0  0  0  0  0  0  0  0  0  0
   23.8797    0.8055    6.7913 H   0  0  0  0  0  0  0  0  0  0  0  0
   22.3038    0.4194    6.0204 H   0  0  0  0  0  0  0  0  0  0  0  0
   24.5359    0.3633    4.5286 H   0  0  0  0  0  0  0  0  0  0  0  0
   23.0635    1.1395    3.8532 H   0  0  0  0  0  0  0  0  0  0  0  0
   25.3762    2.4899    5.3902 H   0  0  0  0  0  0  0  0  0  0  0  0
   24.7622    2.9005    3.7528 H   0  0  0  0  0  0  0  0  0  0  0  0
   24.8549    1.7028   10.0409 H   0  0  0  0  0  0  0  0  0  0  0  0
   25.5072    2.3482   12.3284 H   0  0  0  0  0  0  0  0  0  0  0  0
   26.1609    6.4073   14.7499 H   0  0  0  0  0  0  0  0  0  0  0  0
   25.5843    6.9382   13.2054 H   0  0  0  0  0  0  0  0  0  0  0  0
   24.9150    3.5743    7.2595 H   0  0  0  0  0  0  0  0  0  0  0  0
  1  2  1  0  0  0  0
  1 13  1  0  0  0  0
  1 15  2  0  0  0  0
  2  3  2  0  0  0  0
  2 12  1  0  0  0  0
  3  4  1  0  0  0  0
  4  5  2  0  0  0  0
  5 11  1  0  0  0  0
  5 14  1  0  0  0  0
  6  7  1  0  0  0  0
  6 14  1  0  0  0  0
  6 16  2  0  0  0  0
  7  8  1  0  0  0  0
  7 17  1  0  0  0  0
  8  9  1  0  0  0  0
  9 10  1  0  0  0  0
 10 17  1  0  0  0  0
 11 12  2  0  0  0  0
  3 18  1  0  0  0  0
  4 19  1  0  0  0  0
  7 20  1  0  0  0  0
  8 21  1  0  0  0  0
  8 22  1  0  0  0  0
  9 23  1  0  0  0  0
  9 24  1  0  0  0  0
 10 25  1  0  0  0  0
 10 26  1  0  0  0  0
 11 27  1  0  0  0  0
 12 28  1  0  0  0  0
 13 29  1  0  0  0  0
 13 30  1  0  0  0  0
 14 31  1  0  0  0  0
M  END
$$$$
