LIG(A-1101)
  -OEChem-03292022113D

 34 35  0     0  0  0  0  0  0999 V2000
   23.2610  -17.4170   24.2520 C   0  0  0  0  0  0  0  0  0  0  0  0
   22.2220  -19.3820   24.0210 C   0  0  0  0  0  0  0  0  0  0  0  0
   22.4070  -20.8510   23.6270 C   0  0  0  0  0  0  0  0  0  0  0  0
   24.1580  -20.2130   22.1970 C   0  0  0  0  0  0  0  0  0  0  0  0
   23.9160  -18.7600   22.5810 C   0  0  0  0  0  0  0  0  0  0  0  0
   22.4830  -22.0120   21.3780 C   0  0  0  0  0  0  0  0  0  0  0  0
   22.5730  -23.1230   19.1030 C   0  0  0  0  0  0  0  0  0  0  0  0
   22.2280  -24.4200   19.4440 C   0  0  0  0  0  0  0  0  0  0  0  0
   21.7480  -25.2860   18.4730 C   0  0  0  0  0  0  0  0  0  0  0  0
   21.6120  -24.8590   17.1590 C   0  0  0  0  0  0  0  0  0  0  0  0
   21.9560  -23.5600   16.8130 C   0  0  0  0  0  0  0  0  0  0  0  0
   22.4380  -22.6920   17.7850 C   0  0  0  0  0  0  0  0  0  0  0  0
   23.3870  -18.6230   23.8650 N   0  3  0  0  0  0  0  0  0  0  0  0
   23.0080  -21.0480   22.3500 N   0  0  0  0  0  0  0  0  0  0  0  0
   23.0960  -22.1930   20.0830 N   0  0  0  0  0  0  0  0  0  0  0  0
   21.5100  -22.6380   21.6380 O   0  0  0  0  0  0  0  0  0  0  0  0
   22.8398  -17.3995   25.2680 H   0  0  0  0  0  0  0  0  0  0  0  0
   24.2465  -16.9282   24.2553 H   0  0  0  0  0  0  0  0  0  0  0  0
   22.5880  -16.8806   23.5669 H   0  0  0  0  0  0  0  0  0  0  0  0
   21.4330  -18.9466   23.3902 H   0  0  0  0  0  0  0  0  0  0  0  0
   21.9138  -19.3382   25.0760 H   0  0  0  0  0  0  0  0  0  0  0  0
   23.0431  -21.3326   24.3843 H   0  0  0  0  0  0  0  0  0  0  0  0
   21.4178  -21.3321   23.6193 H   0  0  0  0  0  0  0  0  0  0  0  0
   24.4730  -20.2457   21.1436 H   0  0  0  0  0  0  0  0  0  0  0  0
   24.9627  -20.6106   22.8329 H   0  0  0  0  0  0  0  0  0  0  0  0
   24.8732  -18.2199   22.5353 H   0  0  0  0  0  0  0  0  0  0  0  0
   23.2111  -18.3185   21.8611 H   0  0  0  0  0  0  0  0  0  0  0  0
   22.3326  -24.7567   20.4648 H   0  0  0  0  0  0  0  0  0  0  0  0
   21.4788  -26.2972   18.7402 H   0  0  0  0  0  0  0  0  0  0  0  0
   21.2386  -25.5376   16.4064 H   0  0  0  0  0  0  0  0  0  0  0  0
   21.8495  -23.2249   15.7919 H   0  0  0  0  0  0  0  0  0  0  0  0
   22.7086  -21.6810   17.5183 H   0  0  0  0  0  0  0  0  0  0  0  0
   24.0586  -19.0494   24.4709 H   0  0  0  0  0  0  0  0  0  0  0  0
   23.9095  -21.6580   19.8549 H   0  0  0  0  0  0  0  0  0  0  0  0
  1 13  1  0  0  0  0
  2  3  1  0  0  0  0
  2 13  1  0  0  0  0
  3 14  1  0  0  0  0
  4  5  1  0  0  0  0
  4 14  1  0  0  0  0
  5 13  1  0  0  0  0
  6 14  1  0  0  0  0
  6 15  1  0  0  0  0
  6 16  2  0  0  0  0
  7  8  2  0  0  0  0
  7 12  1  0  0  0  0
  7 15  1  0  0  0  0
  8  9  1  0  0  0  0
  9 10  2  0  0  0  0
 10 11  1  0  0  0  0
 11 12  2  0  0  0  0
  1 17  1  0  0  0  0
  1 18  1  0  0  0  0
  1 19  1  0  0  0  0
  2 20  1  0  0  0  0
  2 21  1  0  0  0  0
  3 22  1  0  0  0  0
  3 23  1  0  0  0  0
  4 24  1  0  0  0  0
  4 25  1  0  0  0  0
  5 26  1  0  0  0  0
  5 27  1  0  0  0  0
  8 28  1  0  0  0  0
  9 29  1  0  0  0  0
 10 30  1  0  0  0  0
 11 31  1  0  0  0  0
 12 32  1  0  0  0  0
 13 33  1  0  0  0  0
 15 34  1  0  0  0  0
M  CHG  1  13   1
M  END
$$$$
