LIG(A-1101)
  -OEChem-03272012043D

 23 23  0     0  0  0  0  0  0999 V2000
   14.0200   -2.5370   24.0740 C   0  0  0  0  0  0  0  0  0  0  0  0
   13.6590   -0.3000   23.3020 C   0  0  0  0  0  0  0  0  0  0  0  0
   12.9140    1.0290   23.4030 C   0  0  0  0  0  0  0  0  0  0  0  0
   11.7070    1.1060   24.0840 C   0  0  0  0  0  0  0  0  0  0  0  0
   11.0440    2.3220   24.1790 C   0  0  0  0  0  0  0  0  0  0  0  0
   11.5950    3.4540   23.5880 C   0  0  0  0  0  0  0  0  0  0  0  0
   12.8020    3.3740   22.9070 C   0  0  0  0  0  0  0  0  0  0  0  0
   13.4590    2.1620   22.8190 C   0  0  0  0  0  0  0  0  0  0  0  0
    9.3110    5.0410   22.7820 N   0  0  0  0  0  0  0  0  0  0  0  0
   13.5480   -1.2380   24.3380 O   0  0  0  0  0  0  0  0  0  0  0  0
   14.3390   -0.5160   22.3610 O   0  0  0  0  0  0  0  0  0  0  0  0
   11.6260    6.1470   23.2870 O   0  0  0  0  0  0  0  0  0  0  0  0
   10.4850    5.3790   25.1070 O   0  0  0  0  0  0  0  0  0  0  0  0
   10.7480    5.0490   23.7050 S   0  0  0  0  0  0  0  0  0  0  0  0
   13.8746   -3.1682   24.9630 H   0  0  0  0  0  0  0  0  0  0  0  0
   13.4638   -2.9639   23.2264 H   0  0  0  0  0  0  0  0  0  0  0  0
   15.0908   -2.4945   23.8257 H   0  0  0  0  0  0  0  0  0  0  0  0
   11.2847    0.2222   24.5388 H   0  0  0  0  0  0  0  0  0  0  0  0
   10.1054    2.3886   24.7090 H   0  0  0  0  0  0  0  0  0  0  0  0
   13.2254    4.2552   22.4481 H   0  0  0  0  0  0  0  0  0  0  0  0
   14.4003    2.0969   22.2935 H   0  0  0  0  0  0  0  0  0  0  0  0
    9.1220    5.9653   22.4505 H   0  0  0  0  0  0  0  0  0  0  0  0
    9.4182    4.4234   22.0029 H   0  0  0  0  0  0  0  0  0  0  0  0
  1 10  1  0  0  0  0
  2  3  1  0  0  0  0
  2 10  1  0  0  0  0
  2 11  2  0  0  0  0
  3  4  2  0  0  0  0
  3  8  1  0  0  0  0
  4  5  1  0  0  0  0
  5  6  2  0  0  0  0
  6  7  1  0  0  0  0
  6 14  1  0  0  0  0
  7  8  2  0  0  0  0
  9 14  1  0  0  0  0
 12 14  2  0  0  0  0
 13 14  2  0  0  0  0
  1 15  1  0  0  0  0
  1 16  1  0  0  0  0
  1 17  1  0  0  0  0
  4 18  1  0  0  0  0
  5 19  1  0  0  0  0
  7 20  1  0  0  0  0
  8 21  1  0  0  0  0
  9 22  1  0  0  0  0
  9 23  1  0  0  0  0
M  END
$$$$
