@<TRIPOS>MOLECULE
LIG(A-1101)
   30    31     0     0     0
SMALL
USER_CHARGES

@<TRIPOS>ATOM
      1 C1          6.7450   -3.4880   19.9100 C.2       1 LIG1101     0.6629
      2 C2          7.3820   -2.7180   18.7850 C.3       1 LIG1101    -0.1039
      3 C3          6.5310   -3.8610   22.3400 C.3       1 LIG1101     0.0487
      4 C4          7.6460   -4.4730   23.1540 C.3       1 LIG1101     0.0996
      5 C5          8.5570   -2.2920   22.9330 C.3       1 LIG1101     0.1761
      6 C6          9.8400   -1.5330   23.1720 C.ar      1 LIG1101    -0.0994
      7 C7          9.9790   -0.7790   24.3240 C.ar      1 LIG1101    -0.0830
      8 C8         11.1330   -0.0670   24.5750 C.ar      1 LIG1101    -0.1689
      9 C9         12.1360   -0.1260   23.6590 C.ar      1 LIG1101     0.1351
     10 C10        12.0540   -0.8540   22.5070 C.ar      1 LIG1101    -0.1689
     11 C11        10.8930   -1.5660   22.2700 C.ar      1 LIG1101    -0.0830
     12 C12         7.9560   -2.0460   21.5550 C.3       1 LIG1101     0.0657
     13 F1         13.2710    0.5760   23.9140 F         1 LIG1101    -0.1384
     14 N1          7.0780   -3.1500   21.1750 N.am      1 LIG1101    -0.4661
     15 O1          5.9590   -4.3930   19.6590 O.2       1 LIG1101    -0.6015
     16 O2          8.8360   -3.6720   23.1220 O.3       1 LIG1101    -0.4051
     17 H1          6.7068   -2.7141   17.9166 H         1 LIG1101     0.0675
     18 H2          7.5680   -1.6835   19.1095 H         1 LIG1101     0.0675
     19 H3          5.8554   -4.6573   21.9943 H         1 LIG1101     0.0727
     20 H4          5.9712   -3.1518   22.9675 H         1 LIG1101     0.0727
     21 H5          7.3117   -4.5710   24.1974 H         1 LIG1101     0.0564
     22 H6          7.8770   -5.4689   22.7479 H         1 LIG1101     0.0564
     23 H7          7.8231   -1.9651   23.6844 H         1 LIG1101     0.0483
     24 H8          9.1699   -0.7476   25.0387 H         1 LIG1101     0.1414
     25 H9         11.2372    0.5214   25.4746 H         1 LIG1101     0.1509
     26 H10        12.8718   -0.8731   21.8018 H         1 LIG1101     0.1509
     27 H11        10.8047   -2.1562   21.3699 H         1 LIG1101     0.1414
     28 H12         7.3752   -1.1120   21.5749 H         1 LIG1101     0.0520
     29 H13         8.7669   -1.9579   20.8169 H         1 LIG1101     0.0520
     30 Du1         8.9530   -3.4960   18.3230 Du        1 LIG1101     0.0000
@<TRIPOS>BOND
     1    1    2 1
     2    1   14 am
     3    1   15 2
     4    3    4 1
     5    3   14 1
     6    4   16 1
     7    5    6 1
     8    5   12 1
     9    5   16 1
    10    6    7 ar
    11    6   11 ar
    12    7    8 ar
    13    8    9 ar
    14    9   10 ar
    15    9   13 1
    16   10   11 ar
    17   12   14 1
    18    2   17 1
    19    2   18 1
    20    3   19 1
    21    3   20 1
    22    4   21 1
    23    4   22 1
    24    5   23 1
    25    7   24 1
    26    8   25 1
    27   10   26 1
    28   11   27 1
    29   12   28 1
    30   12   29 1
    31    2   30 1
