LIG(A-1101)
  -OEChem-03272010513D

 35 36  0     0  0  0  0  0  0999 V2000
    6.9680   -3.4520   21.1410 N   0  0  0  0  0  0  0  0  0  0  0  0
    6.8780   -2.8830   18.7650 C   0  0  0  0  0  0  0  0  0  0  0  0
    5.6290   -4.6190   19.7400 O   0  0  0  0  0  0  0  0  0  0  0  0
    6.4360   -3.7200   19.9270 C   0  0  0  0  0  0  0  0  0  0  0  0
    9.5600   -4.8900   26.5420 C   0  0  0  0  0  0  0  0  0  0  0  0
    9.0540   -3.8050   25.8350 C   0  0  0  0  0  0  0  0  0  0  0  0
    9.8450   -3.2250   24.7810 C   0  0  0  0  0  0  0  0  0  0  0  0
    7.8750   -2.3460   21.4810 C   0  0  0  0  0  0  0  0  0  0  0  0
    7.3120   -1.5140   22.6060 C   0  0  0  0  0  0  0  0  0  0  0  0
    6.0410   -3.4430   23.3840 C   0  0  0  0  0  0  0  0  0  0  0  0
    6.6360   -4.2930   22.2940 C   0  0  0  0  0  0  0  0  0  0  0  0
    7.8020   -3.2610   26.1730 C   0  0  0  0  0  0  0  0  0  0  0  0
    7.0620   -3.8570   27.1910 C   0  0  0  0  0  0  0  0  0  0  0  0
    7.5780   -4.9370   27.8830 C   0  0  0  0  0  0  0  0  0  0  0  0
    8.8150   -5.4480   27.5630 C   0  0  0  0  0  0  0  0  0  0  0  0
    7.0460   -2.4260   23.7260 N   0  0  0  0  0  0  0  0  0  0  0  0
   10.4740   -2.6640   24.0030 N   0  0  0  0  0  0  0  0  0  0  0  0
    8.0750   -0.8240   25.3080 O   0  0  0  0  0  0  0  0  0  0  0  0
    5.7880   -1.6740   25.7230 O   0  0  0  0  0  0  0  0  0  0  0  0
    7.1270   -1.8920   25.2740 S   0  0  0  0  0  0  0  0  0  0  0  0
    8.5740   -3.3830   18.4010 R#  0  0  0  0  0  0  0  0  0  0  0  0
    6.2310   -3.0668   17.8946 H   0  0  0  0  0  0  0  0  0  0  0  0
    6.8433   -1.8156   19.0287 H   0  0  0  0  0  0  0  0  0  0  0  0
   10.5303   -5.2945   26.2944 H   0  0  0  0  0  0  0  0  0  0  0  0
    8.8465   -2.7591   21.7900 H   0  0  0  0  0  0  0  0  0  0  0  0
    8.0127   -1.7081   20.5955 H   0  0  0  0  0  0  0  0  0  0  0  0
    8.0398   -0.7468   22.9088 H   0  0  0  0  0  0  0  0  0  0  0  0
    6.3788   -1.0279   22.2854 H   0  0  0  0  0  0  0  0  0  0  0  0
    5.1196   -2.9598   23.0270 H   0  0  0  0  0  0  0  0  0  0  0  0
    5.8132   -4.0614   24.2647 H   0  0  0  0  0  0  0  0  0  0  0  0
    5.9089   -5.0604   21.9901 H   0  0  0  0  0  0  0  0  0  0  0  0
    7.5491   -4.7801   22.6668 H   0  0  0  0  0  0  0  0  0  0  0  0
    6.0831   -3.4749   27.4404 H   0  0  0  0  0  0  0  0  0  0  0  0
    7.0050   -5.3837   28.6821 H   0  0  0  0  0  0  0  0  0  0  0  0
    9.2060   -6.2908   28.1136 H   0  0  0  0  0  0  0  0  0  0  0  0
  1  4  1  0  0  0  0
  1  8  1  0  0  0  0
  1 11  1  0  0  0  0
  2  4  1  0  0  0  0
  3  4  2  0  0  0  0
  5  6  2  0  0  0  0
  5 15  1  0  0  0  0
  6  7  1  0  0  0  0
  6 12  1  0  0  0  0
  7 17  3  0  0  0  0
  8  9  1  0  0  0  0
  9 16  1  0  0  0  0
 10 11  1  0  0  0  0
 10 16  1  0  0  0  0
 12 13  2  0  0  0  0
 12 20  1  0  0  0  0
 13 14  1  0  0  0  0
 14 15  2  0  0  0  0
 16 20  1  0  0  0  0
 18 20  2  0  0  0  0
 19 20  2  0  0  0  0
  2 22  1  0  0  0  0
  2 23  1  0  0  0  0
  5 24  1  0  0  0  0
  8 25  1  0  0  0  0
  8 26  1  0  0  0  0
  9 27  1  0  0  0  0
  9 28  1  0  0  0  0
 10 29  1  0  0  0  0
 10 30  1  0  0  0  0
 11 31  1  0  0  0  0
 11 32  1  0  0  0  0
 13 33  1  0  0  0  0
 14 34  1  0  0  0  0
 15 35  1  0  0  0  0
  2 21  1  0  0  0  0
M  RGP  1  21   1
M  END
$$$$
