LIG(A-1101)
  -OEChem-03272010503D

 28 29  0     1  0  0  0  0  0999 V2000
    7.4480  -23.3320   -1.2820 C   0  0  0  0  0  0  0  0  0  0  0  0
    7.1260  -21.8580   -0.9670 C   0  0  1  0  0  0  0  0  0  0  0  0
    7.7130  -20.9540   -2.0490 C   0  0  0  0  0  0  0  0  0  0  0  0
    7.7030  -18.6320   -3.0760 C   0  0  0  0  0  0  0  0  0  0  0  0
    8.8180  -18.9900   -4.0610 C   0  0  0  0  0  0  0  0  0  0  0  0
   10.0330  -16.8490   -4.0240 C   0  0  0  0  0  0  0  0  0  0  0  0
   10.3160  -15.8410   -4.9240 C   0  0  0  0  0  0  0  0  0  0  0  0
    9.7340  -16.2090   -6.1270 C   0  0  0  0  0  0  0  0  0  0  0  0
    6.1560  -19.2990   -1.1820 C   0  0  0  0  0  0  0  0  0  0  0  0
    5.2020  -20.4380   -0.8260 C   0  0  0  0  0  0  0  0  0  0  0  0
    7.2020  -19.6060   -2.1260 N   0  0  0  0  0  0  0  0  0  0  0  0
    9.3260  -17.7680   -4.6570 N   0  0  0  0  0  0  0  0  0  0  0  0
    9.1390  -17.3750   -5.9500 N   0  0  0  0  0  0  0  0  0  0  0  0
    7.2450  -17.5370   -3.1020 O   0  0  0  0  0  0  0  0  0  0  0  0
    5.7300  -21.7480   -0.8410 O   0  0  0  0  0  0  0  0  0  0  0  0
    7.0222  -23.9764   -0.4987 H   0  0  0  0  0  0  0  0  0  0  0  0
    7.0130  -23.6022   -2.2555 H   0  0  0  0  0  0  0  0  0  0  0  0
    8.5388  -23.4695   -1.3169 H   0  0  0  0  0  0  0  0  0  0  0  0
    7.6064  -21.6031   -0.0108 H   0  0  0  0  0  0  0  0  0  0  0  0
    8.7970  -20.8883   -1.8742 H   0  0  0  0  0  0  0  0  0  0  0  0
    7.5267  -21.4353   -3.0204 H   0  0  0  0  0  0  0  0  0  0  0  0
    9.6299  -19.5068   -3.5284 H   0  0  0  0  0  0  0  0  0  0  0  0
    8.4192  -19.6471   -4.8479 H   0  0  0  0  0  0  0  0  0  0  0  0
   10.3355  -16.8805   -2.9877 H   0  0  0  0  0  0  0  0  0  0  0  0
   10.8807  -14.9413   -4.7288 H   0  0  0  0  0  0  0  0  0  0  0  0
    9.7620  -15.6427   -7.0462 H   0  0  0  0  0  0  0  0  0  0  0  0
    6.0524  -18.3150   -0.7491 H   0  0  0  0  0  0  0  0  0  0  0  0
    4.1689  -20.2497   -0.5738 H   0  0  0  0  0  0  0  0  0  0  0  0
  1  2  1  0  0  0  0
  2  3  1  0  0  0  0
  2 15  1  0  0  0  0
  3 11  1  0  0  0  0
  4  5  1  0  0  0  0
  4 11  1  0  0  0  0
  4 14  2  0  0  0  0
  5 12  1  0  0  0  0
  6  7  2  0  0  0  0
  6 12  1  0  0  0  0
  7  8  1  0  0  0  0
  8 13  2  0  0  0  0
  9 10  2  0  0  0  0
  9 11  1  0  0  0  0
 10 15  1  0  0  0  0
 12 13  1  0  0  0  0
  1 16  1  0  0  0  0
  1 17  1  0  0  0  0
  1 18  1  0  0  0  0
  2 19  1  0  0  0  0
  3 20  1  0  0  0  0
  3 21  1  0  0  0  0
  5 22  1  0  0  0  0
  5 23  1  0  0  0  0
  6 24  1  0  0  0  0
  7 25  1  0  0  0  0
  8 26  1  0  0  0  0
  9 27  1  0  0  0  0
 10 28  1  0  0  0  0
M  END
$$$$
