LIG(A-1101)
  -OEChem-03272010433D

 25 25  0     1  0  0  0  0  0999 V2000
    8.8410   -1.4120   23.1690 C   0  0  0  0  0  0  0  0  0  0  0  0
    9.9710   -2.1910   22.5010 C   0  0  2  0  0  0  0  0  0  0  0  0
    9.1620   -1.8460   20.1540 C   0  0  0  0  0  0  0  0  0  0  0  0
    8.7560   -2.5000   18.8310 C   0  0  0  0  0  0  0  0  0  0  0  0
   11.3070   -1.4660   22.4690 C   0  0  0  0  0  0  0  0  0  0  0  0
   11.5700   -0.3310   23.2270 C   0  0  0  0  0  0  0  0  0  0  0  0
   12.8140    0.2740   23.1780 C   0  0  0  0  0  0  0  0  0  0  0  0
   13.8220   -0.2480   22.4010 C   0  0  0  0  0  0  0  0  0  0  0  0
   13.5620   -1.3780   21.6670 C   0  0  0  0  0  0  0  0  0  0  0  0
   12.3300   -1.9850   21.6980 C   0  0  0  0  0  0  0  0  0  0  0  0
    9.5530   -2.6410   21.1600 N   0  0  0  0  0  0  0  0  0  0  0  0
    9.1090   -0.6140   20.2360 O   0  0  0  0  0  0  0  0  0  0  0  0
   14.8080   -2.0630   20.6670 Cl  0  0  0  0  0  0  0  0  0  0  0  0
    8.1190   -4.2070   19.0200 R#  0  0  0  0  0  0  0  0  0  0  0  0
    7.9185   -2.0108   23.1459 H   0  0  0  0  0  0  0  0  0  0  0  0
    9.1118   -1.1962   24.2131 H   0  0  0  0  0  0  0  0  0  0  0  0
    8.6783   -0.4672   22.6296 H   0  0  0  0  0  0  0  0  0  0  0  0
   10.1236   -3.0954   23.1083 H   0  0  0  0  0  0  0  0  0  0  0  0
    7.9709   -1.8856   18.3662 H   0  0  0  0  0  0  0  0  0  0  0  0
    9.6369   -2.5287   18.1728 H   0  0  0  0  0  0  0  0  0  0  0  0
   10.7978    0.0820   23.8591 H   0  0  0  0  0  0  0  0  0  0  0  0
   12.9956    1.1673   23.7572 H   0  0  0  0  0  0  0  0  0  0  0  0
   14.7947    0.2202   22.3694 H   0  0  0  0  0  0  0  0  0  0  0  0
   12.1590   -2.8771   21.1138 H   0  0  0  0  0  0  0  0  0  0  0  0
    9.5621   -3.6257   20.9860 H   0  0  0  0  0  0  0  0  0  0  0  0
  1  2  1  0  0  0  0
  2  5  1  0  0  0  0
  2 11  1  0  0  0  0
  3  4  1  0  0  0  0
  3 11  1  0  0  0  0
  3 12  2  0  0  0  0
  5  6  2  0  0  0  0
  5 10  1  0  0  0  0
  6  7  1  0  0  0  0
  7  8  2  0  0  0  0
  8  9  1  0  0  0  0
  9 10  2  0  0  0  0
  9 13  1  0  0  0  0
  1 15  1  0  0  0  0
  1 16  1  0  0  0  0
  1 17  1  0  0  0  0
  2 18  1  0  0  0  0
  4 19  1  0  0  0  0
  4 20  1  0  0  0  0
  6 21  1  0  0  0  0
  7 22  1  0  0  0  0
  8 23  1  0  0  0  0
 10 24  1  0  0  0  0
 11 25  1  0  0  0  0
  4 14  1  0  0  0  0
M  RGP  1  14   1
M  END
$$$$
