@<TRIPOS>MOLECULE
LIG(A-701)
   33    34     0     0     0
SMALL
USER_CHARGES

@<TRIPOS>ATOM
      1 C1         26.0480  -10.4060    4.0020 C.3       1 LIG701     -0.0929
      2 C2         26.4090  -10.3360    5.4920 C.3       1 LIG701      0.1067
      3 C3         27.9260  -10.8440    7.0900 C.3       1 LIG701      0.0704
      4 C4         27.7230  -11.8360    8.2230 C.3       1 LIG701      0.1067
      5 C5         27.0260  -13.4420    6.7580 C.3       1 LIG701      0.1067
      6 C6         27.1210  -12.5040    5.5600 C.3       1 LIG701      0.0704
      7 C7         23.3920   -9.4930    4.6150 C.ar      1 LIG701     -0.0772
      8 C8         23.6710   -8.1980    4.2200 C.ar      1 LIG701     -0.0928
      9 C9         23.0050   -7.1460    4.8050 C.ar      1 LIG701     -0.1289
     10 C10        22.0570   -7.3700    5.7910 C.ar      1 LIG701     -0.0873
     11 C11        21.7840   -8.6650    6.1880 C.ar      1 LIG701     -0.1289
     12 C12        22.4560   -9.7320    5.6020 C.ar      1 LIG701     -0.0928
     13 N1         27.3220  -11.1550    5.8680 N.4       1 LIG701     -0.6785
     14 O1         27.9070  -13.1200    7.7790 O.3       1 LIG701     -0.3689
     15 S1         24.2930  -10.8550    3.8410 S.3       1 LIG701     -0.1505
     16 H1         26.2229   -9.4263    3.5333 H         1 LIG701      0.1022
     17 H2         26.6704  -11.1658    3.5067 H         1 LIG701      0.1022
     18 H3         26.7549   -9.3152    5.7116 H         1 LIG701      0.1099
     19 H4         25.4998  -10.5482    6.0737 H         1 LIG701      0.1099
     20 H5         27.5280   -9.8735    7.4212 H         1 LIG701      0.1101
     21 H6         29.0082  -10.7557    6.9141 H         1 LIG701      0.1101
     22 H7         28.4465  -11.6232    9.0238 H         1 LIG701      0.0971
     23 H8         26.7007  -11.7322    8.6155 H         1 LIG701      0.0971
     24 H9         26.0010  -13.3985    7.1549 H         1 LIG701      0.0971
     25 H10        27.2445  -14.4652    6.4183 H         1 LIG701      0.0971
     26 H11        27.9614  -12.8378    4.9337 H         1 LIG701      0.1101
     27 H12        26.1838  -12.5858    4.9900 H         1 LIG701      0.1101
     28 H13        24.4097   -8.0127    3.4543 H         1 LIG701      0.1418
     29 H14        23.2230   -6.1354    4.4928 H         1 LIG701      0.1519
     30 H15        21.5364   -6.5398    6.2449 H         1 LIG701      0.1534
     31 H16        21.0467   -8.8490    6.9555 H         1 LIG701      0.1519
     32 H17        22.2468  -10.7435    5.9174 H         1 LIG701      0.1418
     33 H18        28.0634  -10.9314    5.2353 H         1 LIG701      0.4439
@<TRIPOS>BOND
     1    1    2 1
     2    1   15 1
     3    2   13 1
     4    3    4 1
     5    3   13 1
     6    4   14 1
     7    5    6 1
     8    5   14 1
     9    6   13 1
    10    7    8 ar
    11    7   12 ar
    12    7   15 1
    13    8    9 ar
    14    9   10 ar
    15   10   11 ar
    16   11   12 ar
    17    1   16 1
    18    1   17 1
    19    2   18 1
    20    2   19 1
    21    3   20 1
    22    3   21 1
    23    4   22 1
    24    4   23 1
    25    5   24 1
    26    5   25 1
    27    6   26 1
    28    6   27 1
    29    8   28 1
    30    9   29 1
    31   10   30 1
    32   11   31 1
    33   12   32 1
    34   13   33 1
