@<TRIPOS>MOLECULE
LIG(A-1301)
   26    26     0     0     0
SMALL
USER_CHARGES

@<TRIPOS>ATOM
      1 N1          6.2200   -5.1690   24.2210 N.am      1 LIG1301    -0.4847
      2 C1          4.9120   -6.1750   26.0210 C.3       1 LIG1301    -0.1692
      3 O1          7.2040   -5.6080   26.1870 O.2       1 LIG1301    -0.6070
      4 C2          6.1980   -5.6280   25.4870 C.2       1 LIG1301     0.6644
      5 C3          5.2500   -5.5480   23.1880 C.3       1 LIG1301     0.0756
      6 C4          5.9470   -5.9830   21.9160 C.3       1 LIG1301     0.0756
      7 C5          7.8800   -4.6470   22.5140 C.3       1 LIG1301     0.0756
      8 C6          7.1900   -4.1740   23.7700 C.3       1 LIG1301     0.0756
      9 C7          6.9160   -4.3030   20.3080 C.2       1 LIG1301     0.6644
     10 C8          8.2160   -3.6150   20.0030 C.3       1 LIG1301    -0.1020
     11 N2          6.8880   -4.9550   21.4860 N.am      1 LIG1301    -0.4845
     12 O2          5.9720   -4.2680   19.5310 O.2       1 LIG1301    -0.6070
     13 H1          5.0590   -6.5130   27.0574 H         1 LIG1301     0.0671
     14 H2          4.1418   -5.3900   25.9972 H         1 LIG1301     0.0671
     15 H3          4.5893   -7.0242   25.4008 H         1 LIG1301     0.0671
     16 H4          4.6339   -6.3791   23.5618 H         1 LIG1301     0.0610
     17 H5          4.6055   -4.6845   22.9668 H         1 LIG1301     0.0610
     18 H6          6.4915   -6.9206   22.1014 H         1 LIG1301     0.0610
     19 H7          5.1977   -6.1440   21.1269 H         1 LIG1301     0.0610
     20 H8          8.5516   -3.8567   22.1474 H         1 LIG1301     0.0610
     21 H9          8.4654   -5.5509   22.7381 H         1 LIG1301     0.0610
     22 H10         7.9404   -4.0153   24.5585 H         1 LIG1301     0.0610
     23 H11         6.6694   -3.2273   23.5635 H         1 LIG1301     0.0610
     24 H12         8.2184   -2.6458   20.5233 H         1 LIG1301     0.0671
     25 H13         9.0322   -4.2418   20.3916 H         1 LIG1301     0.0671
     26 Du1         8.5300   -3.3110   18.2590 Du        1 LIG1301     0.0000
@<TRIPOS>BOND
     1    1    4 am
     2    1    5 1
     3    1    8 1
     4    2    4 1
     5    3    4 2
     6    5    6 1
     7    6   11 1
     8    7    8 1
     9    7   11 1
    10    9   10 1
    11    9   11 am
    12    9   12 2
    13    2   13 1
    14    2   14 1
    15    2   15 1
    16    5   16 1
    17    5   17 1
    18    6   18 1
    19    6   19 1
    20    7   20 1
    21    7   21 1
    22    8   22 1
    23    8   23 1
    24   10   24 1
    25   10   25 1
    26   10   26 1
