@<TRIPOS>MOLECULE
LIG(A-1101)
   33    34     0     0     0
SMALL
USER_CHARGES

@<TRIPOS>ATOM
      1 N1          8.5480    0.6090   24.9100 N.am      1 LIG1101    -0.5573
      2 C1          7.8020    1.3710   24.0090 C.2       1 LIG1101     0.7424
      3 O1          8.2740    2.3700   23.4420 O.2       1 LIG1101    -0.6116
      4 C2          9.9330    0.9400   25.2340 C.3       1 LIG1101     0.1343
      5 C3          4.1460    0.2620   24.7280 C.3       1 LIG1101     0.1236
      6 C4          4.3140    0.9600   22.4570 C.3       1 LIG1101     0.1236
      7 C5          5.7100    1.5670   22.7000 C.3       1 LIG1101     0.0331
      8 C6         10.8510    0.3180   24.2200 C.ar      1 LIG1101    -0.0887
      9 C7         12.0140    0.9790   23.8340 C.ar      1 LIG1101    -0.1250
     10 C8         12.8610    0.4010   22.8910 C.ar      1 LIG1101    -0.0873
     11 C9         12.5240   -0.8340   22.3280 C.ar      1 LIG1101    -0.0178
     12 C10        13.3600   -1.4060   21.3430 C.1       1 LIG1101     0.2327
     13 C11        11.3650   -1.5030   22.7140 C.ar      1 LIG1101    -0.0873
     14 C12        10.5300   -0.9260   23.6620 C.ar      1 LIG1101    -0.1250
     15 C13         5.5790    0.7590   25.0280 C.3       1 LIG1101     0.0331
     16 N2         14.0610   -1.8410   20.5400 N.1       1 LIG1101    -0.3625
     17 N3          6.4320    0.8740   23.8000 N.am      1 LIG1101    -0.4343
     18 O2          3.5710    0.9920   23.6590 O.3       1 LIG1101    -0.4113
     19 H1          8.1227   -0.1846   25.3451 H         1 LIG1101     0.3101
     20 H2         10.0607    2.0325   25.2217 H         1 LIG1101     0.0750
     21 H3         10.1772    0.5535   26.2345 H         1 LIG1101     0.0750
     22 H4          4.1837   -0.8035   24.4572 H         1 LIG1101     0.0572
     23 H5          3.5249    0.3902   25.6268 H         1 LIG1101     0.0572
     24 H6          3.7895    1.5435   21.6860 H         1 LIG1101     0.0572
     25 H7          4.4206   -0.0815   22.1194 H         1 LIG1101     0.0572
     26 H8          6.3012    1.4802   21.7765 H         1 LIG1101     0.0561
     27 H9          5.5952    2.6288   22.9635 H         1 LIG1101     0.0561
     28 H10        12.2591    1.9384   24.2650 H         1 LIG1101     0.1393
     29 H11        13.7710    0.9028   22.5970 H         1 LIG1101     0.1468
     30 H12        11.1181   -2.4609   22.2805 H         1 LIG1101     0.1468
     31 H13         9.6304   -1.4381   23.9699 H         1 LIG1101     0.1393
     32 H14         5.5137    1.7492   25.5027 H         1 LIG1101     0.0561
     33 H15         6.0570    0.0510   25.7210 H         1 LIG1101     0.0561
@<TRIPOS>BOND
     1    1    2 am
     2    1    4 1
     3    2    3 2
     4    2   17 am
     5    4    8 1
     6    5   15 1
     7    5   18 1
     8    6    7 1
     9    6   18 1
    10    7   17 1
    11    8    9 ar
    12    8   14 ar
    13    9   10 ar
    14   10   11 ar
    15   11   12 1
    16   11   13 ar
    17   12   16 3
    18   13   14 ar
    19   15   17 1
    20    1   19 1
    21    4   20 1
    22    4   21 1
    23    5   22 1
    24    5   23 1
    25    6   24 1
    26    6   25 1
    27    7   26 1
    28    7   27 1
    29    9   28 1
    30   10   29 1
    31   13   30 1
    32   14   31 1
    33   15   32 1
    34   15   33 1
