@<TRIPOS>MOLECULE
LIG(A-1101)
   30    31     0     0     0
SMALL
USER_CHARGES

@<TRIPOS>ATOM
      1 N1          6.9510   -2.9280   21.0150 N.am      1 LIG1101    -0.4852
      2 C1          7.1400   -2.5550   18.5790 C.3       1 LIG1101    -0.1012
      3 O1          5.7500   -4.1840   19.6030 O.2       1 LIG1101    -0.6097
      4 C2          6.5590   -3.2800   19.7740 C.2       1 LIG1101     0.6640
      5 C3          8.6740   -5.2950   27.4670 C.2       1 LIG1101    -0.1808
      6 C4          6.5240   -3.7460   22.1510 C.3       1 LIG1101     0.0798
      7 C5          7.6930   -4.0520   23.0550 C.3       1 LIG1101     0.0838
      8 C6          8.7820   -1.9950   22.4170 C.3       1 LIG1101     0.0838
      9 C7          7.6940   -1.7170   21.3940 C.3       1 LIG1101     0.0798
     10 C8          8.3930   -2.4950   24.8430 C.2       1 LIG1101     0.7149
     11 C9          8.6840   -3.5860   25.7150 C.2       1 LIG1101    -0.2049
     12 C10         9.5790   -4.6070   25.4640 C.2       1 LIG1101    -0.1216
     13 C11         9.4490   -5.6380   26.4150 C.2       1 LIG1101    -0.1626
     14 N2          8.2500   -2.7870   23.5260 N.am      1 LIG1101    -0.4804
     15 O2          8.2890   -1.3540   25.2870 O.2       1 LIG1101    -0.5937
     16 S1          7.9130   -3.7950   27.2410 S.3       1 LIG1101     0.1291
     17 H1          6.4886   -2.6864   17.7024 H         1 LIG1101     0.0667
     18 H2          7.2449   -1.4826   18.8004 H         1 LIG1101     0.0667
     19 H3          8.5527   -5.9050   28.3500 H         1 LIG1101     0.1761
     20 H4          5.7587   -3.2000   22.7221 H         1 LIG1101     0.0590
     21 H5          6.0992   -4.6895   21.7776 H         1 LIG1101     0.0590
     22 H6          7.3534   -4.6514   23.9125 H         1 LIG1101     0.0602
     23 H7          8.4586   -4.6110   22.4971 H         1 LIG1101     0.0602
     24 H8          9.5996   -2.5506   21.9345 H         1 LIG1101     0.0602
     25 H9          9.1666   -1.0404   22.8053 H         1 LIG1101     0.0602
     26 H10         8.1588   -1.2922   20.4921 H         1 LIG1101     0.0590
     27 H11         6.9877   -0.9892   21.8199 H         1 LIG1101     0.0590
     28 H12        10.2851   -4.6142   24.6469 H         1 LIG1101     0.1604
     29 H13         9.9208   -6.6042   26.3135 H         1 LIG1101     0.1586
     30 Du1         8.7580   -3.2860   18.2660 Du        1 LIG1101     0.0000
@<TRIPOS>BOND
     1    1    4 am
     2    1    6 1
     3    1    9 1
     4    2    4 1
     5    3    4 2
     6    5   13 2
     7    5   16 1
     8    6    7 1
     9    7   14 1
    10    8    9 1
    11    8   14 1
    12   10   11 1
    13   10   14 am
    14   10   15 2
    15   11   12 2
    16   11   16 1
    17   12   13 1
    18    2   17 1
    19    2   18 1
    20    5   19 1
    21    6   20 1
    22    6   21 1
    23    7   22 1
    24    7   23 1
    25    8   24 1
    26    8   25 1
    27    9   26 1
    28    9   27 1
    29   12   28 1
    30   13   29 1
    31    2   30 1
