LIG(A-701)
  -OEChem-03272012033D

 35 37  0     0  0  0  0  0  0999 V2000
   -0.9340   29.8250   -9.1150 C   0  0  0  0  0  0  0  0  0  0  0  0
   -2.8150   31.1140   -8.0860 C   0  0  0  0  0  0  0  0  0  0  0  0
   -3.3940   32.3880   -8.6990 C   0  0  0  0  0  0  0  0  0  0  0  0
   -2.5200   33.6260   -8.4840 C   0  0  0  0  0  0  0  0  0  0  0  0
   -1.2530   33.6110   -9.3400 C   0  0  0  0  0  0  0  0  0  0  0  0
   -0.0240   33.0690   -8.6200 C   0  0  0  0  0  0  0  0  0  0  0  0
   -0.3470   31.8360   -7.7940 C   0  0  0  0  0  0  0  0  0  0  0  0
   -1.9100   28.7880   -9.6660 C   0  0  0  0  0  0  0  0  0  0  0  0
   -2.4000   28.7990  -10.9570 C   0  0  0  0  0  0  0  0  0  0  0  0
   -3.2820   27.8090  -11.3890 C   0  0  0  0  0  0  0  0  0  0  0  0
   -3.6840   26.7780  -10.5200 C   0  0  0  0  0  0  0  0  0  0  0  0
   -4.7030   25.0830   -9.4510 C   0  0  0  0  0  0  0  0  0  0  0  0
   -3.2060   26.7610   -9.2480 C   0  0  0  0  0  0  0  0  0  0  0  0
   -2.3080   27.7710   -8.8130 C   0  0  0  0  0  0  0  0  0  0  0  0
   -1.3880   30.9560   -8.3140 N   0  0  0  0  0  0  0  0  0  0  0  0
    0.2280   29.6650   -9.3110 O   0  0  0  0  0  0  0  0  0  0  0  0
   -4.5510   25.6820  -10.7050 O   0  0  0  0  0  0  0  0  0  0  0  0
   -3.7610   25.6500   -8.5770 O   0  0  0  0  0  0  0  0  0  0  0  0
   -2.9934   31.1378   -7.0008 H   0  0  0  0  0  0  0  0  0  0  0  0
   -3.3352   30.2495   -8.5242 H   0  0  0  0  0  0  0  0  0  0  0  0
   -3.5124   32.2301   -9.7811 H   0  0  0  0  0  0  0  0  0  0  0  0
   -4.3787   32.5750   -8.2459 H   0  0  0  0  0  0  0  0  0  0  0  0
   -3.1073   34.5200   -8.7406 H   0  0  0  0  0  0  0  0  0  0  0  0
   -2.2281   33.6707   -7.4244 H   0  0  0  0  0  0  0  0  0  0  0  0
   -1.4404   32.9838  -10.2241 H   0  0  0  0  0  0  0  0  0  0  0  0
   -1.0398   34.6416   -9.6601 H   0  0  0  0  0  0  0  0  0  0  0  0
    0.7386   32.8059   -9.3678 H   0  0  0  0  0  0  0  0  0  0  0  0
    0.3704   33.8500   -7.9533 H   0  0  0  0  0  0  0  0  0  0  0  0
    0.5757   31.2441   -7.7030 H   0  0  0  0  0  0  0  0  0  0  0  0
   -0.6644   32.1758   -6.7971 H   0  0  0  0  0  0  0  0  0  0  0  0
   -2.0976   29.5809  -11.6379 H   0  0  0  0  0  0  0  0  0  0  0  0
   -3.6602   27.8339  -12.4003 H   0  0  0  0  0  0  0  0  0  0  0  0
   -5.7195   25.2651   -9.0720 H   0  0  0  0  0  0  0  0  0  0  0  0
   -4.5306   23.9996   -9.5324 H   0  0  0  0  0  0  0  0  0  0  0  0
   -1.9293   27.7463   -7.8019 H   0  0  0  0  0  0  0  0  0  0  0  0
  1  8  1  0  0  0  0
  1 15  1  0  0  0  0
  1 16  2  0  0  0  0
  2  3  1  0  0  0  0
  2 15  1  0  0  0  0
  3  4  1  0  0  0  0
  4  5  1  0  0  0  0
  5  6  1  0  0  0  0
  6  7  1  0  0  0  0
  7 15  1  0  0  0  0
  8  9  2  0  0  0  0
  8 14  1  0  0  0  0
  9 10  1  0  0  0  0
 10 11  2  0  0  0  0
 11 13  1  0  0  0  0
 11 17  1  0  0  0  0
 12 17  1  0  0  0  0
 12 18  1  0  0  0  0
 13 14  2  0  0  0  0
 13 18  1  0  0  0  0
  2 19  1  0  0  0  0
  2 20  1  0  0  0  0
  3 21  1  0  0  0  0
  3 22  1  0  0  0  0
  4 23  1  0  0  0  0
  4 24  1  0  0  0  0
  5 25  1  0  0  0  0
  5 26  1  0  0  0  0
  6 27  1  0  0  0  0
  6 28  1  0  0  0  0
  7 29  1  0  0  0  0
  7 30  1  0  0  0  0
  9 31  1  0  0  0  0
 10 32  1  0  0  0  0
 12 33  1  0  0  0  0
 12 34  1  0  0  0  0
 14 35  1  0  0  0  0
M  END
$$$$
