@<TRIPOS>MOLECULE
LIG(A-1101)
   35    36     0     0     0
SMALL
USER_CHARGES

@<TRIPOS>ATOM
      1 N1          6.7560   -2.7010   20.9930 N.am      1 LIG1101    -0.5099
      2 C1          7.0720   -2.6690   18.5570 C.3       1 LIG1101    -0.0900
      3 O1          5.7630   -4.2720   19.6960 O.2       1 LIG1101    -0.5504
      4 C2          6.4730   -3.2780   19.7990 C.2       1 LIG1101     0.6732
      5 C3         11.7730   -1.8300   22.8390 C.ar      1 LIG1101    -0.1092
      6 C4          8.7410   -1.7040   21.9520 C.3       1 LIG1101     0.0807
      7 C5          7.4550   -1.4380   21.2040 C.3       1 LIG1101     0.0786
      8 C6          6.4180   -3.3120   22.2790 C.3       1 LIG1101     0.0786
      9 C7          7.6780   -3.5560   23.0780 C.3       1 LIG1101     0.0807
     10 C8          9.6970   -2.6290   23.9900 C.3       1 LIG1101     0.1740
     11 C9         10.7990   -1.6170   23.7980 C.ar      1 LIG1101    -0.1689
     12 C10        10.8630   -0.4650   24.5650 C.ar      1 LIG1101    -0.1088
     13 C11        11.8810    0.4520   24.3710 C.ar      1 LIG1101    -0.1084
     14 C12        12.8540    0.2330   23.4170 C.ar      1 LIG1101    -0.0792
     15 C13        12.7820   -0.9120   22.6560 C.ar      1 LIG1101     0.0173
     16 N2          8.4660   -2.3320   23.2480 N.4       1 LIG1101    -0.6836
     17 Cl1        13.9860   -1.2300   21.4400 Cl        1 LIG1101    -0.0372
     18 H1          6.4295   -2.9038   17.6956 H         1 LIG1101     0.0813
     19 H2          7.1308   -1.5779   18.6840 H         1 LIG1101     0.0813
     20 H3         11.7415   -2.7217   22.2305 H         1 LIG1101     0.1519
     21 H4          9.3751   -2.3743   21.3532 H         1 LIG1101     0.1089
     22 H5          9.2667   -0.7519   22.1164 H         1 LIG1101     0.1089
     23 H6          6.8201   -0.7594   21.7925 H         1 LIG1101     0.0938
     24 H7          7.6829   -0.9762   20.2320 H         1 LIG1101     0.0938
     25 H8          5.7546   -2.6376   22.8404 H         1 LIG1101     0.0938
     26 H9          5.9052   -4.2694   22.1047 H         1 LIG1101     0.0938
     27 H10         7.4003   -3.9403   24.0706 H         1 LIG1101     0.1089
     28 H11         8.2917   -4.3035   22.5539 H         1 LIG1101     0.1089
     29 H12        10.0694   -3.6101   23.6602 H         1 LIG1101     0.1066
     30 H13         9.4514   -2.6713   25.0614 H         1 LIG1101     0.1066
     31 H14        10.1128   -0.2813   25.3199 H         1 LIG1101     0.1423
     32 H15        11.9145    1.3484   24.9724 H         1 LIG1101     0.1656
     33 H16        13.6538    0.9438   23.2708 H         1 LIG1101     0.1755
     34 H17         7.9255   -1.6907   23.7926 H         1 LIG1101     0.4401
     35 Du1         8.7320   -3.3190   18.2510 Du        1 LIG1101     0.0000
@<TRIPOS>BOND
     1    1    4 am
     2    1    7 1
     3    1    8 1
     4    2    4 1
     5    3    4 2
     6    5   11 ar
     7    5   15 ar
     8    6    7 1
     9    6   16 1
    10    8    9 1
    11    9   16 1
    12   10   11 1
    13   10   16 1
    14   11   12 ar
    15   12   13 ar
    16   13   14 ar
    17   14   15 ar
    18   15   17 1
    19    2   18 1
    20    2   19 1
    21    5   20 1
    22    6   21 1
    23    6   22 1
    24    7   23 1
    25    7   24 1
    26    8   25 1
    27    8   26 1
    28    9   27 1
    29    9   28 1
    30   10   29 1
    31   10   30 1
    32   12   31 1
    33   13   32 1
    34   14   33 1
    35   16   34 1
    36    2   35 1
