@<TRIPOS>MOLECULE
LIG(A-1101)
   24    25     0     0     0
SMALL
USER_CHARGES

@<TRIPOS>ATOM
      1 N1         14.4580  -25.9440    4.4010 N.pl3     1 LIG1101    -0.6883
      2 C1         15.8790  -25.6050    7.1280 C.3       1 LIG1101    -0.3785
      3 O1         15.0810  -27.8840    7.9180 O.2       1 LIG1101    -0.6377
      4 C2         16.0250  -27.5890    5.5390 C.3       1 LIG1101    -0.3159
      5 C3         14.7510  -27.1990    4.8460 C.2       1 LIG1101     0.5378
      6 C4         13.1670  -26.0460    3.8460 C.ar      1 LIG1101     0.0618
      7 C5         12.3370  -25.0430    3.2970 C.ar      1 LIG1101    -0.1390
      8 C6         11.0730  -25.4160    2.8940 C.ar      1 LIG1101    -0.1048
      9 C7         10.6180  -26.7550    3.0070 C.ar      1 LIG1101    -0.1529
     10 C8         11.4100  -27.7490    3.5310 C.ar      1 LIG1101    -0.0601
     11 C9         12.6970  -27.3830    3.9570 C.ar      1 LIG1101     0.0630
     12 N2         13.7130  -28.1160    4.5880 N.2       1 LIG1101    -0.5304
     13 O2         17.4790  -27.4670    7.6170 O.2       1 LIG1101    -0.6377
     14 S1         16.1300  -27.2420    7.2220 S.o2      1 LIG1101     1.3375
     15 H1         15.0341  -25.1285    4.4565 H         1 LIG1101     0.4576
     16 H2         14.8402  -25.4097    6.8235 H         1 LIG1101     0.1193
     17 H3         16.0647  -25.1486    8.1115 H         1 LIG1101     0.1193
     18 H4         16.5660  -25.1708    6.3867 H         1 LIG1101     0.1193
     19 H5         16.1530  -28.6744    5.4143 H         1 LIG1101     0.1351
     20 H6         16.8509  -27.0625    5.0384 H         1 LIG1101     0.1351
     21 H7         12.6798  -24.0237    3.1971 H         1 LIG1101     0.1362
     22 H8         10.4112  -24.6691    2.4811 H         1 LIG1101     0.1341
     23 H9          9.6211  -27.0004    2.6718 H         1 LIG1101     0.1363
     24 H10        11.0578  -28.7668    3.6115 H         1 LIG1101     0.1529
@<TRIPOS>BOND
     1    1    5 1
     2    1    6 1
     3    2   14 1
     4    3   14 2
     5    4    5 1
     6    4   14 1
     7    5   12 2
     8    6    7 ar
     9    6   11 ar
    10    7    8 ar
    11    8    9 ar
    12    9   10 ar
    13   10   11 ar
    14   11   12 1
    15   13   14 2
    16    1   15 1
    17    2   16 1
    18    2   17 1
    19    2   18 1
    20    4   19 1
    21    4   20 1
    22    7   21 1
    23    8   22 1
    24    9   23 1
    25   10   24 1
