@<TRIPOS>MOLECULE
LIG(A-1101)
   40    41     0     0     0
SMALL
USER_CHARGES

@<TRIPOS>ATOM
      1 N1          5.8360   -5.3040   24.3480 N.pl3     1 LIG1101    -0.8126
      2 C1          0.7820   -1.4490   26.1340 C.3       1 LIG1101    -0.0684
      3 O1          4.7890   -6.8340   25.9830 O.2       1 LIG1101    -0.6551
      4 C2          1.8750   -2.4660   26.0680 C.ar      1 LIG1101    -0.0039
      5 C3          5.1940   -5.1710   22.0640 C.3       1 LIG1101     0.0874
      6 C4          5.2440   -6.0810   23.2580 C.3       1 LIG1101     0.2161
      7 C5          6.8310   -4.3320   20.4750 C.2       1 LIG1101     0.6625
      8 C6          8.0960   -3.5620   20.2020 C.3       1 LIG1101    -0.1027
      9 C7          3.1780   -2.1230   26.3510 C.ar      1 LIG1101    -0.1628
     10 C8          4.1910   -3.0520   26.2930 C.ar      1 LIG1101    -0.0191
     11 C9          3.9100   -4.3730   25.9650 C.ar      1 LIG1101    -0.3843
     12 C10         2.5940   -4.7580   25.6460 C.ar      1 LIG1101     0.0621
     13 C11         2.1530   -6.1420   25.2540 C.3       1 LIG1101    -0.0875
     14 C12         1.6080   -3.7780   25.7220 C.ar      1 LIG1101    -0.1713
     15 C13         7.2490   -5.0210   24.0830 C.3       1 LIG1101     0.2161
     16 C14         7.2790   -4.0680   22.9180 C.3       1 LIG1101     0.0874
     17 N2          6.4930   -4.5460   21.7670 N.am      1 LIG1101    -0.4797
     18 O2          6.2920   -5.0250   26.7620 O.2       1 LIG1101    -0.6551
     19 O3          6.1280   -4.7060   19.5450 O.2       1 LIG1101    -0.6077
     20 S1          5.2740   -5.4940   25.8740 S.o2      1 LIG1101     1.5103
     21 H1          1.2032   -0.4757   26.4260 H         1 LIG1101     0.0536
     22 H2          0.3038   -1.3603   25.1474 H         1 LIG1101     0.0536
     23 H3          0.0340   -1.7625   26.8771 H         1 LIG1101     0.0536
     24 H4          4.8780   -5.7573   21.1886 H         1 LIG1101     0.0541
     25 H5          4.4583   -4.3767   22.2584 H         1 LIG1101     0.0541
     26 H6          4.2292   -6.4063   23.5307 H         1 LIG1101     0.0577
     27 H7          5.8649   -6.9621   23.0386 H         1 LIG1101     0.0577
     28 H8          7.9782   -2.5431   20.5994 H         1 LIG1101     0.0663
     29 H9          8.9287   -4.0627   20.7176 H         1 LIG1101     0.0663
     30 H10         3.4095   -1.1041   26.6240 H         1 LIG1101     0.1414
     31 H11         5.2076   -2.7539   26.5030 H         1 LIG1101     0.1507
     32 H12         2.3814   -6.8447   26.0689 H         1 LIG1101     0.0651
     33 H13         1.0696   -6.1413   25.0635 H         1 LIG1101     0.0651
     34 H14         2.6854   -6.4520   24.3427 H         1 LIG1101     0.0651
     35 H15         0.5879   -4.0551   25.5006 H         1 LIG1101     0.1403
     36 H16         7.7166   -4.5589   24.9649 H         1 LIG1101     0.0577
     37 H17         7.7821   -5.9492   23.8294 H         1 LIG1101     0.0577
     38 H18         6.8701   -3.1006   23.2450 H         1 LIG1101     0.0541
     39 H19         8.3235   -3.9357   22.5993 H         1 LIG1101     0.0541
     40 Du1         8.4950   -3.4500   18.4330 Du        1 LIG1101     0.0000
@<TRIPOS>BOND
     1    1    6 1
     2    1   15 1
     3    1   20 1
     4    2    4 1
     5    3   20 2
     6    4    9 ar
     7    4   14 ar
     8    5    6 1
     9    5   17 1
    10    7    8 1
    11    7   17 am
    12    7   19 2
    13    9   10 ar
    14   10   11 ar
    15   11   12 ar
    16   11   20 1
    17   12   13 1
    18   12   14 ar
    19   15   16 1
    20   16   17 1
    21   18   20 2
    22    2   21 1
    23    2   22 1
    24    2   23 1
    25    5   24 1
    26    5   25 1
    27    6   26 1
    28    6   27 1
    29    8   28 1
    30    8   29 1
    31    9   30 1
    32   10   31 1
    33   13   32 1
    34   13   33 1
    35   13   34 1
    36   14   35 1
    37   15   36 1
    38   15   37 1
    39   16   38 1
    40   16   39 1
    41    8   40 1
