@<TRIPOS>MOLECULE
LIG(A-1101)
   23    23     0     0     0
SMALL
USER_CHARGES

@<TRIPOS>ATOM
      1 N1         22.8900  -20.2580   23.3530 N.4       1 LIG1101    -0.7701
      2 C1         23.8430  -18.0390   24.0540 C.3       1 LIG1101    -0.1352
      3 C2         22.9660  -18.7840   23.0380 C.3       1 LIG1101     0.1056
      4 C3         21.6430  -20.5910   24.1160 C.3       1 LIG1101     0.1277
      5 C4         21.2250  -22.0050   23.9310 C.2       1 LIG1101     0.1133
      6 C5         21.2610  -23.0960   24.8060 C.2       1 LIG1101    -0.1427
      7 C6         20.4370  -25.5260   24.5300 C.3       1 LIG1101     0.0167
      8 N2         20.6530  -24.1350   24.0920 N.pl3     1 LIG1101     0.0784
      9 N3         20.2840  -23.6690   22.8600 N.2       1 LIG1101    -0.1113
     10 N4         20.6190  -22.4390   22.7570 N.2       1 LIG1101    -0.3437
     11 H1         22.8951  -20.7744   22.4966 H         1 LIG1101     0.4569
     12 H2         23.6855  -20.5148   23.9018 H         1 LIG1101     0.4569
     13 H3         23.8769  -16.9703   23.7959 H         1 LIG1101     0.0795
     14 H4         23.4192  -18.1594   25.0619 H         1 LIG1101     0.0795
     15 H5         24.8616  -18.4537   24.0326 H         1 LIG1101     0.0795
     16 H6         21.9513  -18.3600   23.0622 H         1 LIG1101     0.1077
     17 H7         23.3937  -18.6543   22.0329 H         1 LIG1101     0.1077
     18 H8         21.8260  -20.4141   25.1861 H         1 LIG1101     0.1131
     19 H9         20.8312  -19.9346   23.7694 H         1 LIG1101     0.1131
     20 H10        21.6664  -23.1290   25.8065 H         1 LIG1101     0.2112
     21 H11        19.8119  -25.5331   25.4351 H         1 LIG1101     0.0853
     22 H12        19.9312  -26.0876   23.7308 H         1 LIG1101     0.0853
     23 H13        21.4069  -25.9956   24.7507 H         1 LIG1101     0.0853
@<TRIPOS>BOND
     1    1    3 1
     2    1    4 1
     3    2    3 1
     4    4    5 1
     5    5    6 2
     6    5   10 1
     7    6    8 1
     8    7    8 1
     9    8    9 1
    10    9   10 2
    11    1   11 1
    12    1   12 1
    13    2   13 1
    14    2   14 1
    15    2   15 1
    16    3   16 1
    17    3   17 1
    18    4   18 1
    19    4   19 1
    20    6   20 1
    21    7   21 1
    22    7   22 1
    23    7   23 1
