LIG(A-1101)
  -OEChem-03292022413D

 34 35  0     0  0  0  0  0  0999 V2000
    6.8580   -4.3150   21.9100 N   0  0  0  0  0  0  0  0  0  0  0  0
    7.7780   -4.7660   19.8290 C   0  0  0  0  0  0  0  0  0  0  0  0
    5.4640   -4.2410   20.1140 O   0  0  0  0  0  0  0  0  0  0  0  0
    6.5600   -4.4090   20.6160 C   0  0  0  0  0  0  0  0  0  0  0  0
    0.4670   -4.8070   24.0550 C   0  0  0  0  0  0  0  0  0  0  0  0
   -0.0860   -7.2830   24.9110 C   0  0  0  0  0  0  0  0  0  0  0  0
    1.0610   -7.7230   24.0300 C   0  0  0  0  0  0  0  0  0  0  0  0
    5.9810   -4.4560   22.9970 C   0  0  0  0  0  0  0  0  0  0  0  0
    5.9720   -3.4450   23.9510 C   0  0  0  0  0  0  0  0  0  0  0  0
    5.1100   -3.5330   25.0210 C   0  0  0  0  0  0  0  0  0  0  0  0
    4.2590   -4.6180   25.1460 C   0  0  0  0  0  0  0  0  0  0  0  0
    4.2630   -5.6330   24.1970 C   0  0  0  0  0  0  0  0  0  0  0  0
    5.1230   -5.5460   23.1020 C   0  0  0  0  0  0  0  0  0  0  0  0
    3.3340   -6.8050   24.3200 C   0  0  0  0  0  0  0  0  0  0  0  0
    1.5590   -5.4570   23.2350 C   0  0  0  0  0  0  0  0  0  0  0  0
    2.0660   -6.6610   23.9050 N   0  0  0  0  0  0  0  0  0  0  0  0
    3.7660   -7.8620   24.7760 O   0  0  0  0  0  0  0  0  0  0  0  0
   -0.9720   -5.8690   24.2390 S   0  0  0  0  0  0  0  0  0  0  0  0
    8.2260   -3.4410   18.6920 R#  0  0  0  0  0  0  0  0  0  0  0  0
    7.8137   -4.1224   22.1327 H   0  0  0  0  0  0  0  0  0  0  0  0
    8.6141   -4.9435   20.5214 H   0  0  0  0  0  0  0  0  0  0  0  0
    7.5782   -5.6816   19.2531 H   0  0  0  0  0  0  0  0  0  0  0  0
    0.8653   -4.5748   25.0537 H   0  0  0  0  0  0  0  0  0  0  0  0
    0.1581   -3.8757   23.5578 H   0  0  0  0  0  0  0  0  0  0  0  0
   -0.7899   -8.1215   25.0177 H   0  0  0  0  0  0  0  0  0  0  0  0
    0.3131   -7.0113   25.8994 H   0  0  0  0  0  0  0  0  0  0  0  0
    1.5321   -8.6138   24.4711 H   0  0  0  0  0  0  0  0  0  0  0  0
    0.6728   -7.9702   23.0309 H   0  0  0  0  0  0  0  0  0  0  0  0
    6.6352   -2.5982   23.8538 H   0  0  0  0  0  0  0  0  0  0  0  0
    5.0976   -2.7518   25.7666 H   0  0  0  0  0  0  0  0  0  0  0  0
    3.5860   -4.6760   25.9887 H   0  0  0  0  0  0  0  0  0  0  0  0
    5.1227   -6.3159   22.3446 H   0  0  0  0  0  0  0  0  0  0  0  0
    1.1541   -5.7352   22.2508 H   0  0  0  0  0  0  0  0  0  0  0  0
    2.3850   -4.7426   23.1031 H   0  0  0  0  0  0  0  0  0  0  0  0
  1  4  1  0  0  0  0
  1  8  1  0  0  0  0
  2  4  1  0  0  0  0
  3  4  2  0  0  0  0
  5 15  1  0  0  0  0
  5 18  1  0  0  0  0
  6  7  1  0  0  0  0
  6 18  1  0  0  0  0
  7 16  1  0  0  0  0
  8  9  2  0  0  0  0
  8 13  1  0  0  0  0
  9 10  1  0  0  0  0
 10 11  2  0  0  0  0
 11 12  1  0  0  0  0
 12 13  2  0  0  0  0
 12 14  1  0  0  0  0
 14 16  1  0  0  0  0
 14 17  2  0  0  0  0
 15 16  1  0  0  0  0
  1 20  1  0  0  0  0
  2 21  1  0  0  0  0
  2 22  1  0  0  0  0
  5 23  1  0  0  0  0
  5 24  1  0  0  0  0
  6 25  1  0  0  0  0
  6 26  1  0  0  0  0
  7 27  1  0  0  0  0
  7 28  1  0  0  0  0
  9 29  1  0  0  0  0
 10 30  1  0  0  0  0
 11 31  1  0  0  0  0
 13 32  1  0  0  0  0
 15 33  1  0  0  0  0
 15 34  1  0  0  0  0
  2 19  1  0  0  0  0
M  RGP  1  19   1
M  END
$$$$
