@<TRIPOS>MOLECULE
LIG(A-1101)
   23    23     0     0     0
SMALL
USER_CHARGES

@<TRIPOS>ATOM
      1 C1         14.0200   -2.5370   24.0740 C.3       1 LIG1101     0.1284
      2 C2         13.6590   -0.3000   23.3020 C.2       1 LIG1101     0.6371
      3 C3         12.9140    1.0290   23.4030 C.ar      1 LIG1101    -0.0651
      4 C4         11.7070    1.1060   24.0840 C.ar      1 LIG1101    -0.1032
      5 C5         11.0440    2.3220   24.1790 C.ar      1 LIG1101    -0.0349
      6 C6         11.5950    3.4540   23.5880 C.ar      1 LIG1101    -0.3472
      7 C7         12.8020    3.3740   22.9070 C.ar      1 LIG1101    -0.0349
      8 C8         13.4590    2.1620   22.8190 C.ar      1 LIG1101    -0.1032
      9 N1          9.3110    5.0410   22.7820 N.pl3     1 LIG1101    -1.0341
     10 O1         13.5480   -1.2380   24.3380 O.3       1 LIG1101    -0.4371
     11 O2         14.3390   -0.5160   22.3610 O.2       1 LIG1101    -0.5336
     12 O3         11.6260    6.1470   23.2870 O.2       1 LIG1101    -0.6592
     13 O4         10.4850    5.3790   25.1070 O.2       1 LIG1101    -0.6592
     14 S1         10.7480    5.0490   23.7050 S.o2      1 LIG1101     1.5325
     15 H1         13.8746   -3.1682   24.9630 H         1 LIG1101     0.0564
     16 H2         13.4638   -2.9639   23.2264 H         1 LIG1101     0.0564
     17 H3         15.0908   -2.4945   23.8257 H         1 LIG1101     0.0564
     18 H4         11.2847    0.2222   24.5388 H         1 LIG1101     0.1636
     19 H5         10.1054    2.3886   24.7090 H         1 LIG1101     0.1614
     20 H6         13.2254    4.2552   22.4481 H         1 LIG1101     0.1614
     21 H7         14.4003    2.0969   22.2935 H         1 LIG1101     0.1636
     22 H8          9.1220    5.9653   22.4505 H         1 LIG1101     0.4473
     23 H9          9.4182    4.4234   22.0029 H         1 LIG1101     0.4473
@<TRIPOS>BOND
     1    1   10 1
     2    2    3 1
     3    2   10 1
     4    2   11 2
     5    3    4 ar
     6    3    8 ar
     7    4    5 ar
     8    5    6 ar
     9    6    7 ar
    10    6   14 1
    11    7    8 ar
    12    9   14 1
    13   12   14 2
    14   13   14 2
    15    1   15 1
    16    1   16 1
    17    1   17 1
    18    4   18 1
    19    5   19 1
    20    7   20 1
    21    8   21 1
    22    9   22 1
    23    9   23 1
