@<TRIPOS>MOLECULE
LIG(A-1101)
   28    29     0     0     0
SMALL
USER_CHARGES

@<TRIPOS>ATOM
      1 C1         10.8870  -25.7840    3.2130 C.ar      1 LIG1101     0.1518
      2 C2         12.0240  -25.0000    3.2940 C.ar      1 LIG1101    -0.1217
      3 C3         12.3100  -24.0780    2.2910 C.ar      1 LIG1101    -0.0864
      4 C4         11.4540  -23.9360    1.2220 C.ar      1 LIG1101    -0.1397
      5 C5         10.3050  -24.7240    1.1490 C.ar      1 LIG1101    -0.1514
      6 C6          9.3260  -24.6010   -0.0620 C.3       1 LIG1101     0.1691
      7 C7          7.9280  -23.2130   -1.3450 C.3       1 LIG1101     0.1100
      8 C8          7.1150  -21.9110   -1.3720 C.2       1 LIG1101     0.0871
      9 C9          7.4680  -20.7180   -1.9990 C.2       1 LIG1101    -0.1450
     10 C10         6.4430  -19.8110   -1.7710 C.2       1 LIG1101    -0.2700
     11 C11         5.4560  -20.4840   -0.9940 C.2       1 LIG1101     0.3180
     12 C12        10.0250  -25.6480    2.1420 C.ar      1 LIG1101    -0.1380
     13 F1         10.5920  -26.6830    4.1750 F         1 LIG1101    -0.1097
     14 N1          8.8570  -23.2170   -0.2810 N.4       1 LIG1101    -0.7727
     15 O1          5.8860  -21.7230   -0.7860 O.3       1 LIG1101    -0.3578
     16 H1         12.6910  -25.1035    4.1371 H         1 LIG1101     0.1785
     17 H2         13.2033  -23.4741    2.3514 H         1 LIG1101     0.1647
     18 H3         11.6708  -23.2186    0.4443 H         1 LIG1101     0.1316
     19 H4          9.8446  -24.9441   -0.9694 H         1 LIG1101     0.1093
     20 H5          8.4524  -25.2425    0.1258 H         1 LIG1101     0.1093
     21 H6          7.2399  -24.0624   -1.2228 H         1 LIG1101     0.1205
     22 H7          8.4718  -23.3154   -2.2957 H         1 LIG1101     0.1205
     23 H8          8.3727  -20.5332   -2.5592 H         1 LIG1101     0.1788
     24 H9          6.4011  -18.7887   -2.1168 H         1 LIG1101     0.1938
     25 H10         4.5271  -20.0629   -0.6389 H         1 LIG1101     0.0827
     26 H11         9.1369  -26.2594    2.0794 H         1 LIG1101     0.1621
     27 H12         9.6342  -22.6315   -0.5115 H         1 LIG1101     0.4524
     28 H13         8.4175  -22.8758    0.5499 H         1 LIG1101     0.4524
@<TRIPOS>BOND
     1    1    2 ar
     2    1   12 ar
     3    1   13 1
     4    2    3 ar
     5    3    4 ar
     6    4    5 ar
     7    5    6 1
     8    5   12 ar
     9    6   14 1
    10    7    8 1
    11    7   14 1
    12    8    9 2
    13    8   15 1
    14    9   10 1
    15   10   11 2
    16   11   15 1
    17    2   16 1
    18    3   17 1
    19    4   18 1
    20    6   19 1
    21    6   20 1
    22    7   21 1
    23    7   22 1
    24    9   23 1
    25   10   24 1
    26   11   25 1
    27   12   26 1
    28   14   27 1
    29   14   28 1
