LIG(A-1101)
  -OEChem-03272010333D

 26 26  0     0  0  0  0  0  0999 V2000
    6.5900   -5.0900   26.5460 C   0  0  0  0  0  0  0  0  0  0  0  0
    9.4640   -3.1570   24.1330 C   0  0  0  0  0  0  0  0  0  0  0  0
    9.3590   -1.8720   23.3230 C   0  0  0  0  0  0  0  0  0  0  0  0
   10.7550   -1.2710   23.3660 C   0  0  0  0  0  0  0  0  0  0  0  0
   11.0670   -0.2310   24.2330 C   0  0  0  0  0  0  0  0  0  0  0  0
   12.3580    0.2710   24.2540 C   0  0  0  0  0  0  0  0  0  0  0  0
   13.3330   -0.2790   23.4380 C   0  0  0  0  0  0  0  0  0  0  0  0
   13.0180   -1.3270   22.5820 C   0  0  0  0  0  0  0  0  0  0  0  0
   11.7290   -1.8190   22.5550 C   0  0  0  0  0  0  0  0  0  0  0  0
    8.2120   -3.6650   24.6320 N   0  0  0  0  0  0  0  0  0  0  0  0
    9.2350   -5.5840   26.1220 O   0  0  0  0  0  0  0  0  0  0  0  0
    8.8020   -3.6590   27.1680 O   0  0  0  0  0  0  0  0  0  0  0  0
    8.2500   -4.4980   26.1180 S   0  0  0  0  0  0  0  0  0  0  0  0
    6.6274   -5.6255   27.5061 H   0  0  0  0  0  0  0  0  0  0  0  0
    5.9057   -4.2329   26.6307 H   0  0  0  0  0  0  0  0  0  0  0  0
    6.2297   -5.7706   25.7605 H   0  0  0  0  0  0  0  0  0  0  0  0
    9.9144   -3.9290   23.4917 H   0  0  0  0  0  0  0  0  0  0  0  0
   10.1220   -2.9654   24.9934 H   0  0  0  0  0  0  0  0  0  0  0  0
    9.0629   -2.0904   22.2864 H   0  0  0  0  0  0  0  0  0  0  0  0
    8.6279   -1.1866   23.7765 H   0  0  0  0  0  0  0  0  0  0  0  0
   10.3106    0.1819   24.8840 H   0  0  0  0  0  0  0  0  0  0  0  0
   12.6051    1.0937   24.9086 H   0  0  0  0  0  0  0  0  0  0  0  0
   14.3409    0.1080   23.4673 H   0  0  0  0  0  0  0  0  0  0  0  0
   13.7765   -1.7535   21.9423 H   0  0  0  0  0  0  0  0  0  0  0  0
   11.4805   -2.6375   21.8957 H   0  0  0  0  0  0  0  0  0  0  0  0
    7.3947   -3.1220   24.4390 H   0  0  0  0  0  0  0  0  0  0  0  0
  1 13  1  0  0  0  0
  2  3  1  0  0  0  0
  2 10  1  0  0  0  0
  3  4  1  0  0  0  0
  4  5  2  0  0  0  0
  4  9  1  0  0  0  0
  5  6  1  0  0  0  0
  6  7  2  0  0  0  0
  7  8  1  0  0  0  0
  8  9  2  0  0  0  0
 10 13  1  0  0  0  0
 11 13  2  0  0  0  0
 12 13  2  0  0  0  0
  1 14  1  0  0  0  0
  1 15  1  0  0  0  0
  1 16  1  0  0  0  0
  2 17  1  0  0  0  0
  2 18  1  0  0  0  0
  3 19  1  0  0  0  0
  3 20  1  0  0  0  0
  5 21  1  0  0  0  0
  6 22  1  0  0  0  0
  7 23  1  0  0  0  0
  8 24  1  0  0  0  0
  9 25  1  0  0  0  0
 10 26  1  0  0  0  0
M  END
$$$$
