@<TRIPOS>MOLECULE
LIG(A-1101)
   21    21     0     0     0
SMALL
USER_CHARGES

@<TRIPOS>ATOM
      1 C1          9.9140   -0.6710   22.5440 C.3       1 LIG1101    -0.1650
      2 C2          9.0200   -0.0530   21.4710 C.2       1 LIG1101     0.6446
      3 C3          6.9240   -0.1160   20.0670 C.ar      1 LIG1101    -0.0749
      4 C4          7.3010   -0.1830   18.7320 C.ar      1 LIG1101     0.4219
      5 C5          5.4180    0.9350   18.0620 C.ar      1 LIG1101     0.3961
      6 C6          4.9600    1.0580   19.3670 C.ar      1 LIG1101    -0.2404
      7 C7          5.7280    0.5160   20.3980 C.ar      1 LIG1101    -0.0582
      8 C8          5.2810    0.6220   21.8540 C.3       1 LIG1101    -0.0620
      9 N1          7.7750   -0.6990   21.0920 N.am      1 LIG1101    -0.4778
     10 N2          6.5510    0.3330   17.7770 N.ar      1 LIG1101    -0.6633
     11 O1          9.3460    0.9600   20.9550 O.2       1 LIG1101    -0.5853
     12 H1         10.8000   -0.0365   22.6939 H         1 LIG1101     0.0675
     13 H2          9.3543   -0.7478   23.4878 H         1 LIG1101     0.0675
     14 H3         10.2315   -1.6742   22.2234 H         1 LIG1101     0.0675
     15 H4          8.2293   -0.6686   18.4696 H         1 LIG1101     0.0337
     16 H5          4.8259    1.3460   17.2577 H         1 LIG1101     0.0247
     17 H6          4.0290    1.5625   19.5795 H         1 LIG1101     0.1434
     18 H7          4.3237    1.1614   21.9059 H         1 LIG1101     0.0494
     19 H8          5.1563   -0.3872   22.2735 H         1 LIG1101     0.0494
     20 H9          6.0412    1.1680   22.4320 H         1 LIG1101     0.0494
     21 H10         7.5014   -1.5506   21.5392 H         1 LIG1101     0.3116
@<TRIPOS>BOND
     1    1    2 1
     2    2    9 am
     3    2   11 2
     4    3    4 ar
     5    3    7 ar
     6    3    9 1
     7    4   10 ar
     8    5    6 ar
     9    5   10 ar
    10    6    7 ar
    11    7    8 1
    12    1   12 1
    13    1   13 1
    14    1   14 1
    15    4   15 1
    16    5   16 1
    17    6   17 1
    18    8   18 1
    19    8   19 1
    20    8   20 1
    21    9   21 1
