@<TRIPOS>MOLECULE
LIG(A-1101)
   34    35     0     0     0
SMALL
USER_CHARGES

@<TRIPOS>ATOM
      1 C1          9.4620    0.1790   21.3990 C.2       1 LIG1101     0.6602
      2 C2         10.0510   -0.3120   22.7150 C.3       1 LIG1101    -0.1465
      3 C3         11.5700   -0.2260   22.7370 C.3       1 LIG1101    -0.0541
      4 C4         12.1880   -1.1720   21.7080 C.3       1 LIG1101    -0.0734
      5 C5         13.4460   -1.8740   22.2130 C.3       1 LIG1101    -0.0726
      6 C6         14.2900   -1.0480   23.1730 C.3       1 LIG1101    -0.0748
      7 C7         13.4970   -0.3390   24.2650 C.3       1 LIG1101    -0.0726
      8 C8         11.9940   -0.5570   24.1570 C.3       1 LIG1101    -0.0734
      9 C9          7.5430    0.0720   19.8490 C.ar      1 LIG1101    -0.0677
     10 C10         6.2960    0.6690   20.0040 C.ar      1 LIG1101    -0.1225
     11 C11         5.6620    1.1060   18.8460 C.ar      1 LIG1101    -0.2335
     12 C12         6.3070    0.9290   17.6300 C.ar      1 LIG1101     0.3851
     13 C13         8.1460   -0.0680   18.6140 C.ar      1 LIG1101     0.4118
     14 N1          8.1920   -0.3690   21.0460 N.am      1 LIG1101    -0.4891
     15 N2          7.5030    0.3630   17.5510 N.ar      1 LIG1101    -0.6537
     16 O1         10.0000    0.9720   20.6940 O.2       1 LIG1101    -0.5794
     17 H1          9.6502    0.3041   23.5334 H         1 LIG1101     0.0627
     18 H2          9.7541   -1.3604   22.8659 H         1 LIG1101     0.0627
     19 H3         11.8742    0.8047   22.5023 H         1 LIG1101     0.0743
     20 H4         11.4427   -1.9372   21.4451 H         1 LIG1101     0.0420
     21 H5         12.4486   -0.5906   20.8113 H         1 LIG1101     0.0420
     22 H6         13.1405   -2.7954   22.7304 H         1 LIG1101     0.0384
     23 H7         14.0682   -2.1310   21.3431 H         1 LIG1101     0.0384
     24 H8         15.0157   -1.7187   23.6563 H         1 LIG1101     0.0393
     25 H9         14.8272   -0.2860   22.5892 H         1 LIG1101     0.0393
     26 H10        13.8349   -0.7153   25.2419 H         1 LIG1101     0.0384
     27 H11        13.6988    0.7403   24.1980 H         1 LIG1101     0.0384
     28 H12        11.4699    0.1012   24.8656 H         1 LIG1101     0.0420
     29 H13        11.7522   -1.6059   24.3834 H         1 LIG1101     0.0420
     30 H14         5.8422    0.7874   20.9768 H         1 LIG1101     0.1368
     31 H15         4.6892    1.5728   18.8920 H         1 LIG1101     0.1430
     32 H16         5.8217    1.2612   16.7242 H         1 LIG1101     0.0238
     33 H17         9.1224   -0.5207   18.5237 H         1 LIG1101     0.0371
     34 H18         7.7593   -1.0555   21.6304 H         1 LIG1101     0.3158
@<TRIPOS>BOND
     1    1    2 1
     2    1   14 am
     3    1   16 2
     4    2    3 1
     5    3    4 1
     6    3    8 1
     7    4    5 1
     8    5    6 1
     9    6    7 1
    10    7    8 1
    11    9   10 ar
    12    9   13 ar
    13    9   14 1
    14   10   11 ar
    15   11   12 ar
    16   12   15 ar
    17   13   15 ar
    18    2   17 1
    19    2   18 1
    20    3   19 1
    21    4   20 1
    22    4   21 1
    23    5   22 1
    24    5   23 1
    25    6   24 1
    26    6   25 1
    27    7   26 1
    28    7   27 1
    29    8   28 1
    30    8   29 1
    31   10   30 1
    32   11   31 1
    33   12   32 1
    34   13   33 1
    35   14   34 1
