@<TRIPOS>MOLECULE
LIG(A-1101)
   35    36     0     0     0
SMALL
USER_CHARGES

@<TRIPOS>ATOM
      1 N1          6.9680   -3.4520   21.1410 N.am      1 LIG1101    -0.4797
      2 C1          6.8780   -2.8830   18.7650 C.3       1 LIG1101    -0.1005
      3 O1          5.6290   -4.6190   19.7400 O.2       1 LIG1101    -0.6116
      4 C2          6.4360   -3.7200   19.9270 C.2       1 LIG1101     0.6656
      5 C3          9.5600   -4.8900   26.5420 C.ar      1 LIG1101    -0.1196
      6 C4          9.0540   -3.8050   25.8350 C.ar      1 LIG1101     0.1013
      7 C5          9.8450   -3.2250   24.7810 C.1       1 LIG1101     0.2091
      8 C6          7.8750   -2.3460   21.4810 C.3       1 LIG1101     0.0833
      9 C7          7.3120   -1.5140   22.6060 C.3       1 LIG1101     0.2053
     10 C8          6.0410   -3.4430   23.3840 C.3       1 LIG1101     0.2053
     11 C9          6.6360   -4.2930   22.2940 C.3       1 LIG1101     0.0833
     12 C10         7.8020   -3.2610   26.1730 C.ar      1 LIG1101    -0.3235
     13 C11         7.0620   -3.8570   27.1910 C.ar      1 LIG1101    -0.0327
     14 C12         7.5780   -4.9370   27.8830 C.ar      1 LIG1101    -0.1352
     15 C13         8.8150   -5.4480   27.5630 C.ar      1 LIG1101    -0.0745
     16 N2          7.0460   -2.4260   23.7260 N.pl3     1 LIG1101    -0.8185
     17 N3         10.4740   -2.6640   24.0030 N.1       1 LIG1101    -0.3284
     18 O2          8.0750   -0.8240   25.3080 O.2       1 LIG1101    -0.6444
     19 O3          5.7880   -1.6740   25.7230 O.2       1 LIG1101    -0.6444
     20 S1          7.1270   -1.8920   25.2740 S.o2      1 LIG1101     1.5001
     21 H1          6.2310   -3.0668   17.8946 H         1 LIG1101     0.0677
     22 H2          6.8433   -1.8156   19.0287 H         1 LIG1101     0.0677
     23 H3         10.5303   -5.2945   26.2944 H         1 LIG1101     0.1527
     24 H4          8.8465   -2.7591   21.7900 H         1 LIG1101     0.0643
     25 H5          8.0127   -1.7081   20.5955 H         1 LIG1101     0.0643
     26 H6          8.0398   -0.7468   22.9088 H         1 LIG1101     0.0612
     27 H7          6.3788   -1.0279   22.2854 H         1 LIG1101     0.0612
     28 H8          5.1196   -2.9598   23.0270 H         1 LIG1101     0.0612
     29 H9          5.8132   -4.0614   24.2647 H         1 LIG1101     0.0612
     30 H10         5.9089   -5.0604   21.9901 H         1 LIG1101     0.0643
     31 H11         7.5491   -4.7801   22.6668 H         1 LIG1101     0.0643
     32 H12         6.0831   -3.4749   27.4404 H         1 LIG1101     0.1736
     33 H13         7.0050   -5.3837   28.6821 H         1 LIG1101     0.1489
     34 H14         9.2060   -6.2908   28.1136 H         1 LIG1101     0.1468
     35 Du1         8.5740   -3.3830   18.4010 Du        1 LIG1101     0.0000
@<TRIPOS>BOND
     1    1    4 am
     2    1    8 1
     3    1   11 1
     4    2    4 1
     5    3    4 2
     6    5    6 ar
     7    5   15 ar
     8    6    7 1
     9    6   12 ar
    10    7   17 3
    11    8    9 1
    12    9   16 1
    13   10   11 1
    14   10   16 1
    15   12   13 ar
    16   12   20 1
    17   13   14 ar
    18   14   15 ar
    19   16   20 1
    20   18   20 2
    21   19   20 2
    22    2   21 1
    23    2   22 1
    24    5   23 1
    25    8   24 1
    26    8   25 1
    27    9   26 1
    28    9   27 1
    29   10   28 1
    30   10   29 1
    31   11   30 1
    32   11   31 1
    33   13   32 1
    34   14   33 1
    35   15   34 1
    36    2   35 1
