@<TRIPOS>MOLECULE
LIG(A-1101)
   26    26     0     0     0
SMALL
USER_CHARGES

@<TRIPOS>ATOM
      1 C1          6.5900   -5.0900   26.5460 C.3       1 LIG1101    -0.3582
      2 C2          9.4640   -3.1570   24.1330 C.3       1 LIG1101     0.2193
      3 C3          9.3590   -1.8720   23.3230 C.3       1 LIG1101    -0.0397
      4 C4         10.7550   -1.2710   23.3660 C.ar      1 LIG1101    -0.0901
      5 C5         11.0670   -0.2310   24.2330 C.ar      1 LIG1101    -0.1220
      6 C6         12.3580    0.2710   24.2540 C.ar      1 LIG1101    -0.1271
      7 C7         13.3330   -0.2790   23.4380 C.ar      1 LIG1101    -0.1262
      8 C8         13.0180   -1.3270   22.5820 C.ar      1 LIG1101    -0.1271
      9 C9         11.7290   -1.8190   22.5550 C.ar      1 LIG1101    -0.1220
     10 N1          8.2120   -3.6650   24.6320 N.pl3     1 LIG1101    -0.9300
     11 O1          9.2350   -5.5840   26.1220 O.2       1 LIG1101    -0.6567
     12 O2          8.8020   -3.6590   27.1680 O.2       1 LIG1101    -0.6567
     13 S1          8.2500   -4.4980   26.1180 S.o2      1 LIG1101     1.4728
     14 H1          6.6274   -5.6255   27.5061 H         1 LIG1101     0.1143
     15 H2          5.9057   -4.2329   26.6307 H         1 LIG1101     0.1143
     16 H3          6.2297   -5.7706   25.7605 H         1 LIG1101     0.1143
     17 H4          9.9144   -3.9290   23.4917 H         1 LIG1101     0.0511
     18 H5         10.1220   -2.9654   24.9934 H         1 LIG1101     0.0511
     19 H6          9.0629   -2.0904   22.2864 H         1 LIG1101     0.0543
     20 H7          8.6279   -1.1866   23.7765 H         1 LIG1101     0.0543
     21 H8         10.3106    0.1819   24.8840 H         1 LIG1101     0.1327
     22 H9         12.6051    1.0937   24.9086 H         1 LIG1101     0.1336
     23 H10        14.3409    0.1080   23.4673 H         1 LIG1101     0.1328
     24 H11        13.7765   -1.7535   21.9423 H         1 LIG1101     0.1336
     25 H12        11.4805   -2.6375   21.8957 H         1 LIG1101     0.1327
     26 H13         7.3947   -3.1220   24.4390 H         1 LIG1101     0.4446
@<TRIPOS>BOND
     1    1   13 1
     2    2    3 1
     3    2   10 1
     4    3    4 1
     5    4    5 ar
     6    4    9 ar
     7    5    6 ar
     8    6    7 ar
     9    7    8 ar
    10    8    9 ar
    11   10   13 1
    12   11   13 2
    13   12   13 2
    14    1   14 1
    15    1   15 1
    16    1   16 1
    17    2   17 1
    18    2   18 1
    19    3   19 1
    20    3   20 1
    21    5   21 1
    22    6   22 1
    23    7   23 1
    24    8   24 1
    25    9   25 1
    26   10   26 1
