LIG(A-1101)
  -OEChem-03272010483D

 23 23  0     0  0  0  0  0  0999 V2000
    6.6940    2.6720   -6.6850 N   0  0  0  0  0  0  0  0  0  0  0  0
    4.4740   -1.9330   -6.5450 C   0  0  0  0  0  0  0  0  0  0  0  0
    6.3470    0.6260   -5.3890 O   0  0  0  0  0  0  0  0  0  0  0  0
    5.6080   -1.7210   -7.4400 C   0  0  0  0  0  0  0  0  0  0  0  0
    6.3340   -2.8390   -7.7740 C   0  0  0  0  0  0  0  0  0  0  0  0
    7.4430   -2.6940   -8.5610 C   0  0  0  0  0  0  0  0  0  0  0  0
    7.8570   -1.4460   -9.0070 C   0  0  0  0  0  0  0  0  0  0  0  0
    7.1170   -0.3330   -8.6960 C   0  0  0  0  0  0  0  0  0  0  0  0
    5.9870   -0.4510   -7.9200 C   0  0  0  0  0  0  0  0  0  0  0  0
    5.2380    0.8080   -7.6810 C   0  0  0  0  0  0  0  0  0  0  0  0
    8.1050   -3.7740   -8.9340 F   0  0  0  0  0  0  0  0  0  0  0  0
    4.5220    2.2620   -5.7740 O   0  0  0  0  0  0  0  0  0  0  0  0
    5.6530    1.5460   -6.2070 S   0  0  0  0  0  0  0  0  0  0  0  0
    7.5325    2.2349   -7.0102 H   0  0  0  0  0  0  0  0  0  0  0  0
    6.1925    3.4678   -7.0243 H   0  0  0  0  0  0  0  0  0  0  0  0
    4.4033   -3.0003   -6.2883 H   0  0  0  0  0  0  0  0  0  0  0  0
    4.6164   -1.3439   -5.6270 H   0  0  0  0  0  0  0  0  0  0  0  0
    3.5476   -1.6142   -7.0452 H   0  0  0  0  0  0  0  0  0  0  0  0
    6.0341   -3.8147   -7.4213 H   0  0  0  0  0  0  0  0  0  0  0  0
    8.7573   -1.3516   -9.5960 H   0  0  0  0  0  0  0  0  0  0  0  0
    7.4220    0.6367   -9.0608 H   0  0  0  0  0  0  0  0  0  0  0  0
    5.4570    1.5090   -8.4999 H   0  0  0  0  0  0  0  0  0  0  0  0
    4.1617    0.5810   -7.6706 H   0  0  0  0  0  0  0  0  0  0  0  0
  1 13  1  0  0  0  0
  2  4  1  0  0  0  0
  3 13  2  0  0  0  0
  4  5  2  0  0  0  0
  4  9  1  0  0  0  0
  5  6  1  0  0  0  0
  6  7  2  0  0  0  0
  6 11  1  0  0  0  0
  7  8  1  0  0  0  0
  8  9  2  0  0  0  0
  9 10  1  0  0  0  0
 10 13  1  0  0  0  0
 12 13  2  0  0  0  0
  1 14  1  0  0  0  0
  1 15  1  0  0  0  0
  2 16  1  0  0  0  0
  2 17  1  0  0  0  0
  2 18  1  0  0  0  0
  5 19  1  0  0  0  0
  7 20  1  0  0  0  0
  8 21  1  0  0  0  0
 10 22  1  0  0  0  0
 10 23  1  0  0  0  0
M  END
$$$$
