@<TRIPOS>MOLECULE
LIG(A-1101)
   37    38     0     0     0
SMALL
USER_CHARGES

@<TRIPOS>ATOM
      1 N1          6.8690   -2.3990   25.9350 N.am      1 LIG1101    -0.4841
      2 C1          5.8960   -0.2310   26.5410 C.ar      1 LIG1101     0.1156
      3 O1          5.2870   -0.2040   25.3300 O.3       1 LIG1101    -0.5251
      4 C2          5.7620    0.7900   27.4840 C.ar      1 LIG1101    -0.1363
      5 C3          7.7250   -3.1920   21.8090 C.3       1 LIG1101     0.0885
      6 C4          7.0720   -2.5970   23.0240 C.3       1 LIG1101    -0.0990
      7 C5          6.4070   -3.8980   19.8250 C.2       1 LIG1101     0.6606
      8 C6          7.1070   -2.8280   19.0300 C.3       1 LIG1101    -0.1049
      9 C7          6.4120    0.6930   28.7030 C.ar      1 LIG1101    -0.1160
     10 C8          7.1950   -0.4040   28.9940 C.ar      1 LIG1101    -0.1386
     11 C9          7.3390   -1.4240   28.0660 C.ar      1 LIG1101    -0.1317
     12 C10         6.6790   -1.3470   26.8550 C.ar      1 LIG1101    -0.0029
     13 C11         5.9640   -3.0910   25.2040 C.2       1 LIG1101     0.6701
     14 C12         6.5530   -3.7020   23.9460 C.3       1 LIG1101    -0.1296
     15 C13         5.5670   -4.5800   23.1720 C.3       1 LIG1101    -0.0990
     16 C14         6.2360   -5.1470   21.9430 C.3       1 LIG1101     0.0885
     17 N2          6.7790   -4.0660   21.1100 N.am      1 LIG1101    -0.4723
     18 O2          4.7860   -3.2250   25.5150 O.2       1 LIG1101    -0.6000
     19 O3          5.5460   -4.5930   19.2980 O.2       1 LIG1101    -0.6012
     20 H1          7.8204   -2.6769   25.8020 H         1 LIG1101     0.3166
     21 H2          4.9838   -1.0765   25.1080 H         1 LIG1101     0.4459
     22 H3          5.1525    1.6538   27.2631 H         1 LIG1101     0.1532
     23 H4          8.0424   -2.3841   21.1333 H         1 LIG1101     0.0583
     24 H5          8.6032   -3.7782   22.1175 H         1 LIG1101     0.0583
     25 H6          7.8075   -1.9865   23.5684 H         1 LIG1101     0.0655
     26 H7          6.2303   -1.9627   22.7091 H         1 LIG1101     0.0655
     27 H8          6.4595   -2.5241   18.1943 H         1 LIG1101     0.0663
     28 H9          7.2928   -1.9628   19.6834 H         1 LIG1101     0.0663
     29 H10         6.3047    1.4830   29.4316 H         1 LIG1101     0.1380
     30 H11         7.6977   -0.4689   29.9477 H         1 LIG1101     0.1356
     31 H12         7.9648   -2.2755   28.2891 H         1 LIG1101     0.1348
     32 H13         7.4081   -4.3291   24.2385 H         1 LIG1101     0.0654
     33 H14         5.2300   -5.4050   23.8168 H         1 LIG1101     0.0655
     34 H15         4.7004   -3.9743   22.8685 H         1 LIG1101     0.0655
     35 H16         7.0552   -5.8133   22.2512 H         1 LIG1101     0.0583
     36 H17         5.4985   -5.7181   21.3600 H         1 LIG1101     0.0583
     37 Du1         8.6930   -3.4130   18.3630 Du        1 LIG1101     0.0000
@<TRIPOS>BOND
     1    1   12 1
     2    1   13 am
     3    2    3 1
     4    2    4 ar
     5    2   12 ar
     6    4    9 ar
     7    5    6 1
     8    5   17 1
     9    6   14 1
    10    7    8 1
    11    7   17 am
    12    7   19 2
    13    9   10 ar
    14   10   11 ar
    15   11   12 ar
    16   13   14 1
    17   13   18 2
    18   14   15 1
    19   15   16 1
    20   16   17 1
    21    1   20 1
    22    3   21 1
    23    4   22 1
    24    5   23 1
    25    5   24 1
    26    6   25 1
    27    6   26 1
    28    8   27 1
    29    8   28 1
    30    9   29 1
    31   10   30 1
    32   11   31 1
    33   14   32 1
    34   15   33 1
    35   15   34 1
    36   16   35 1
    37   16   36 1
    38    8   37 1
