LIG(A-1101)
  -OEChem-03292021533D

 21 21  0     0  0  0  0  0  0999 V2000
    9.9140   -0.6710   22.5440 C   0  0  0  0  0  0  0  0  0  0  0  0
    9.0200   -0.0530   21.4710 C   0  0  0  0  0  0  0  0  0  0  0  0
    6.9240   -0.1160   20.0670 C   0  0  0  0  0  0  0  0  0  0  0  0
    7.3010   -0.1830   18.7320 C   0  0  0  0  0  0  0  0  0  0  0  0
    5.4180    0.9350   18.0620 C   0  0  0  0  0  0  0  0  0  0  0  0
    4.9600    1.0580   19.3670 C   0  0  0  0  0  0  0  0  0  0  0  0
    5.7280    0.5160   20.3980 C   0  0  0  0  0  0  0  0  0  0  0  0
    5.2810    0.6220   21.8540 C   0  0  0  0  0  0  0  0  0  0  0  0
    7.7750   -0.6990   21.0920 N   0  0  0  0  0  0  0  0  0  0  0  0
    6.5510    0.3330   17.7770 N   0  0  0  0  0  0  0  0  0  0  0  0
    9.3460    0.9600   20.9550 O   0  0  0  0  0  0  0  0  0  0  0  0
   10.8000   -0.0365   22.6939 H   0  0  0  0  0  0  0  0  0  0  0  0
    9.3543   -0.7478   23.4878 H   0  0  0  0  0  0  0  0  0  0  0  0
   10.2315   -1.6742   22.2234 H   0  0  0  0  0  0  0  0  0  0  0  0
    8.2293   -0.6686   18.4696 H   0  0  0  0  0  0  0  0  0  0  0  0
    4.8259    1.3460   17.2577 H   0  0  0  0  0  0  0  0  0  0  0  0
    4.0290    1.5625   19.5795 H   0  0  0  0  0  0  0  0  0  0  0  0
    4.3237    1.1614   21.9059 H   0  0  0  0  0  0  0  0  0  0  0  0
    5.1563   -0.3872   22.2735 H   0  0  0  0  0  0  0  0  0  0  0  0
    6.0412    1.1680   22.4320 H   0  0  0  0  0  0  0  0  0  0  0  0
    7.5014   -1.5506   21.5392 H   0  0  0  0  0  0  0  0  0  0  0  0
  1  2  1  0  0  0  0
  2  9  1  0  0  0  0
  2 11  2  0  0  0  0
  3  4  2  0  0  0  0
  3  7  1  0  0  0  0
  3  9  1  0  0  0  0
  4 10  1  0  0  0  0
  5  6  1  0  0  0  0
  5 10  2  0  0  0  0
  6  7  2  0  0  0  0
  7  8  1  0  0  0  0
  1 12  1  0  0  0  0
  1 13  1  0  0  0  0
  1 14  1  0  0  0  0
  4 15  1  0  0  0  0
  5 16  1  0  0  0  0
  6 17  1  0  0  0  0
  8 18  1  0  0  0  0
  8 19  1  0  0  0  0
  8 20  1  0  0  0  0
  9 21  1  0  0  0  0
M  END
$$$$
