@<TRIPOS>MOLECULE
LIG(A-801)
   29    30     0     0     0
SMALL
USER_CHARGES

@<TRIPOS>ATOM
      1 C1         10.7720   -0.4840   24.6580 C.3       1 LIG801      0.1990
      2 C2         12.5050   -1.6780   23.3560 C.3       1 LIG801      0.2169
      3 C3         13.4810   -1.5760   22.2220 C.3       1 LIG801     -0.0873
      4 C4         14.4540   -0.4360   22.4420 C.3       1 LIG801     -0.0378
      5 C5         13.7000    0.9040   22.7060 C.ar      1 LIG801     -0.0868
      6 C6         14.2540    2.1300   22.2900 C.ar      1 LIG801     -0.1153
      7 C7         13.5650    3.3230   22.5210 C.ar      1 LIG801     -0.0790
      8 C8         12.3140    3.2700   23.1670 C.ar      1 LIG801     -0.3218
      9 C9         11.7610    2.0610   23.5740 C.ar      1 LIG801     -0.0922
     10 C10        12.4550    0.8590   23.3370 C.ar      1 LIG801      0.1748
     11 N1         11.8950   -0.4430   23.7520 N.pl3     1 LIG801     -0.6785
     12 N2         12.3680    6.1430   23.2090 N.pl3     1 LIG801     -1.0338
     13 O1         10.9220    4.7010   24.8790 O.2       1 LIG801     -0.6651
     14 O2         10.1250    4.8350   22.7670 O.2       1 LIG801     -0.6651
     15 S1         11.3910    4.7800   23.5010 S.o2      1 LIG801      1.5335
     16 H1         10.4947   -1.5307   24.8520 H         1 LIG801      0.0430
     17 H2         11.0469    0.0038   25.6048 H         1 LIG801      0.0430
     18 H3          9.9184    0.0439   24.2078 H         1 LIG801      0.0430
     19 H4         11.7054   -2.3708   23.0549 H         1 LIG801      0.0373
     20 H5         13.0373   -2.0886   24.2266 H         1 LIG801      0.0373
     21 H6         14.0430   -2.5185   22.1456 H         1 LIG801      0.0568
     22 H7         12.9286   -1.4016   21.2869 H         1 LIG801      0.0568
     23 H8         15.0886   -0.6680   23.3100 H         1 LIG801      0.0559
     24 H9         15.0836   -0.3235   21.5471 H         1 LIG801      0.0559
     25 H10        15.2122    2.1479   21.7920 H         1 LIG801      0.1345
     26 H11        13.9836    4.2688   22.2101 H         1 LIG801      0.1282
     27 H12        10.8020    2.0439   24.0704 H         1 LIG801      0.1565
     28 H13        12.0882    6.8897   23.8124 H         1 LIG801      0.4453
     29 H14        13.3246    5.9122   23.3867 H         1 LIG801      0.4453
@<TRIPOS>BOND
     1    1   11 1
     2    2    3 1
     3    2   11 1
     4    3    4 1
     5    4    5 1
     6    5    6 ar
     7    5   10 ar
     8    6    7 ar
     9    7    8 ar
    10    8    9 ar
    11    8   15 1
    12    9   10 ar
    13   10   11 1
    14   12   15 1
    15   13   15 2
    16   14   15 2
    17    1   16 1
    18    1   17 1
    19    1   18 1
    20    2   19 1
    21    2   20 1
    22    3   21 1
    23    3   22 1
    24    4   23 1
    25    4   24 1
    26    6   25 1
    27    7   26 1
    28    9   27 1
    29   12   28 1
    30   12   29 1
