@<TRIPOS>MOLECULE
LIG(A-1301)
   32    33     0     0     0
SMALL
USER_CHARGES

@<TRIPOS>ATOM
      1 N1          7.0070   -2.3630   20.7650 N.am      1 LIG1301    -0.5114
      2 C1          7.2790   -2.4740   18.3090 C.3       1 LIG1301    -0.0929
      3 O1          5.7740   -3.8100   19.5770 O.2       1 LIG1301    -0.5494
      4 C2          6.6240   -2.9270   19.6010 C.2       1 LIG1301     0.6749
      5 C3          7.9070   -1.2250   20.9110 C.3       1 LIG1301     0.0782
      6 C4          6.5880   -2.8610   22.0720 C.3       1 LIG1301     0.0782
      7 C5          7.7990   -3.2530   22.8870 C.3       1 LIG1301     0.0816
      8 C6          9.9030   -2.5430   23.8170 C.3       1 LIG1301     0.2089
      9 C7         10.9850   -1.4940   23.8150 C.2       1 LIG1301    -0.2263
     10 C8         12.0870   -1.4240   22.9100 C.2       1 LIG1301    -0.1396
     11 C9         12.7980   -0.2800   23.0050 C.2       1 LIG1301    -0.1864
     12 C10        11.0200   -0.4110   24.6860 C.2       1 LIG1301    -0.1847
     13 C11         9.1160   -1.6370   21.7160 C.3       1 LIG1301     0.0816
     14 N2          8.7300   -2.1310   23.0440 N.4       1 LIG1301    -0.6867
     15 S1         12.1640    0.7410   24.1910 S.3       1 LIG1301     0.2147
     16 H1          6.6240   -2.7253   17.4618 H         1 LIG1301     0.0810
     17 H2          7.4341   -1.3855   18.3423 H         1 LIG1301     0.0810
     18 H3          8.2286   -0.8823   19.9164 H         1 LIG1301     0.0921
     19 H4          7.3833   -0.4079   21.4287 H         1 LIG1301     0.0921
     20 H5          6.0320   -2.0731   22.6012 H         1 LIG1301     0.0921
     21 H6          5.9398   -3.7394   21.9367 H         1 LIG1301     0.0921
     22 H7          7.4676   -3.5839   23.8823 H         1 LIG1301     0.1081
     23 H8          8.3183   -4.0795   22.3799 H         1 LIG1301     0.1081
     24 H9         10.3067   -3.4688   23.3813 H         1 LIG1301     0.1047
     25 H10         9.5941   -2.7310   24.8559 H         1 LIG1301     0.1047
     26 H11        12.3295   -2.2132   22.2137 H         1 LIG1301     0.1638
     27 H12        13.6618   -0.0477   22.3998 H         1 LIG1301     0.1994
     28 H13        10.3992   -0.3150   25.5645 H         1 LIG1301     0.1841
     29 H14         9.6497   -2.4345   21.1783 H         1 LIG1301     0.1081
     30 H15         9.7797   -0.7680   21.8360 H         1 LIG1301     0.1081
     31 H16         8.2644   -1.3952   23.5357 H         1 LIG1301     0.4403
     32 Du1         8.8750   -3.2990   18.0960 Du        1 LIG1301     0.0000
@<TRIPOS>BOND
     1    1    4 am
     2    1    5 1
     3    1    6 1
     4    2    4 1
     5    3    4 2
     6    5   13 1
     7    6    7 1
     8    7   14 1
     9    8    9 1
    10    8   14 1
    11    9   10 1
    12    9   12 2
    13   10   11 2
    14   11   15 1
    15   12   15 1
    16   13   14 1
    17    2   16 1
    18    2   17 1
    19    5   18 1
    20    5   19 1
    21    6   20 1
    22    6   21 1
    23    7   22 1
    24    7   23 1
    25    8   24 1
    26    8   25 1
    27   10   26 1
    28   11   27 1
    29   12   28 1
    30   13   29 1
    31   13   30 1
    32   14   31 1
    33    2   32 1
