MIH-UNI-6b9-2
 OpenBabel03242009303D

 44 46  0  0  1  0  0  0  0  0999 V2000
   12.6452   -0.7914   22.9720 C   0  0  0  0  0  0  0  0  0  0  0  0
    6.0017   -3.5981   23.6283 C   0  0  0  0  0  0  0  0  0  0  0  0
   12.5079    0.4454   23.5813 C   0  0  0  0  0  0  0  0  0  0  0  0
   10.6327   -0.2268   24.7258 C   0  0  0  0  0  0  0  0  0  0  0  0
    5.7492   -4.1170   22.3775 C   0  0  0  0  0  0  0  0  0  0  0  0
    7.9365   -4.8289   23.2485 C   0  0  0  0  0  0  0  0  0  0  0  0
   11.7107   -1.7746   23.2773 C   0  0  0  0  0  0  0  0  0  0  0  0
    7.2688   -4.0103   24.1329 C   0  0  0  0  0  0  0  0  0  0  0  0
   10.6820   -1.4950   24.1700 C   0  0  0  0  0  0  0  0  0  0  0  0
    8.6335   -2.3125   25.3871 C   0  0  0  0  0  0  0  0  0  0  0  0
    6.9234   -5.8859   27.4084 C   0  0  0  0  0  0  0  0  0  0  0  0
    8.3891   -4.1555   28.4971 C   0  0  0  0  0  0  0  0  0  0  0  0
    7.9050   -5.9102   26.2299 C   0  0  0  0  0  0  0  0  0  0  0  0
    9.3191   -4.2438   27.2809 C   0  0  0  0  0  0  0  0  0  0  0  0
    7.6057   -5.4512   28.7039 C   0  0  2  0  0  0  0  0  0  0  0  0
   11.8344   -3.1170   22.6343 C   0  0  0  0  0  0  0  0  0  0  0  0
    7.8145   -3.5973   25.4821 C   0  0  2  0  0  0  0  0  0  0  0  0
   11.5222    0.7542   24.4535 N   0  0  0  0  0  0  0  0  0  0  0  0
    8.6488   -4.6581   26.0417 N   0  0  0  0  0  0  0  0  0  0  0  0
    9.7072   -2.4618   24.5129 N   0  0  0  0  0  0  0  0  0  0  0  0
    8.3390   -1.3109   26.0341 O   0  0  0  0  0  0  0  0  0  0  0  0
    8.4910   -6.4881   29.1230 O   0  0  0  0  0  0  0  0  0  0  0  0
    7.0366   -5.0970   21.8165 S   0  0  0  0  0  0  0  0  0  0  0  0
   13.4593   -0.9773   22.2797 H   0  0  0  0  0  0  0  0  0  0  0  0
    5.3073   -2.9541   24.1530 H   0  0  0  0  0  0  0  0  0  0  0  0
   13.2107    1.2464   23.3767 H   0  0  0  0  0  0  0  0  0  0  0  0
    9.8539    0.0519   25.4296 H   0  0  0  0  0  0  0  0  0  0  0  0
    4.8702   -3.9682   21.7665 H   0  0  0  0  0  0  0  0  0  0  0  0
    8.9090   -5.2852   23.3714 H   0  0  0  0  0  0  0  0  0  0  0  0
    6.0867   -5.2112   27.1855 H   0  0  0  0  0  0  0  0  0  0  0  0
    6.4728   -6.8798   27.5405 H   0  0  0  0  0  0  0  0  0  0  0  0
    8.9730   -3.9260   29.3996 H   0  0  0  0  0  0  0  0  0  0  0  0
    7.6928   -3.3161   28.3750 H   0  0  0  0  0  0  0  0  0  0  0  0
    8.6172   -6.7431   26.4016 H   0  0  0  0  0  0  0  0  0  0  0  0
    7.3533   -6.1786   25.3033 H   0  0  0  0  0  0  0  0  0  0  0  0
    9.8274   -3.2656   27.1405 H   0  0  0  0  0  0  0  0  0  0  0  0
   10.1256   -4.9652   27.5251 H   0  0  0  0  0  0  0  0  0  0  0  0
    6.8537   -5.3163   29.4893 H   0  0  0  0  0  0  0  0  0  0  0  0
   12.4559   -3.7773   23.2501 H   0  0  0  0  0  0  0  0  0  0  0  0
   10.8512   -3.5853   22.5021 H   0  0  0  0  0  0  0  0  0  0  0  0
   12.2873   -3.0390   21.6381 H   0  0  0  0  0  0  0  0  0  0  0  0
    6.9908   -3.4327   26.1876 H   0  0  0  0  0  0  0  0  0  0  0  0
    9.8018   -3.3727   24.0688 H   0  0  0  0  0  0  0  0  0  0  0  0
    7.9478   -7.2806   29.2611 H   0  0  0  0  0  0  0  0  0  0  0  0
  1  3  2  0  0  0  0
  1  7  1  0  0  0  0
  1 24  1  0  0  0  0
  2  5  2  0  0  0  0
  2  8  1  0  0  0  0
  2 25  1  0  0  0  0
  3 18  1  0  0  0  0
  3 26  1  0  0  0  0
  4  9  1  0  0  0  0
  4 18  2  0  0  0  0
  4 27  1  0  0  0  0
  5 23  1  0  0  0  0
  5 28  1  0  0  0  0
  6  8  2  0  0  0  0
  6 23  1  0  0  0  0
  6 29  1  0  0  0  0
  7  9  2  0  0  0  0
  7 16  1  0  0  0  0
  8 17  1  0  0  0  0
  9 20  1  0  0  0  0
 10 17  1  0  0  0  0
 10 20  1  0  0  0  0
 10 21  2  0  0  0  0
 11 13  1  0  0  0  0
 11 15  1  0  0  0  0
 11 30  1  0  0  0  0
 11 31  1  0  0  0  0
 12 14  1  0  0  0  0
 12 15  1  0  0  0  0
 12 32  1  0  0  0  0
 12 33  1  0  0  0  0
 13 19  1  0  0  0  0
 13 34  1  0  0  0  0
 13 35  1  0  0  0  0
 14 19  1  0  0  0  0
 14 36  1  0  0  0  0
 14 37  1  0  0  0  0
 15 22  1  0  0  0  0
 15 38  1  1  0  0  0
 16 39  1  0  0  0  0
 16 40  1  0  0  0  0
 16 41  1  0  0  0  0
 17 19  1  0  0  0  0
 17 42  1  1  0  0  0
 20 43  1  0  0  0  0
 22 44  1  0  0  0  0
M  END
>  <Chemgauss4 Score>
-5.1054835319519

>  <Number of Confs>
40

$$$$
