DAR-DIA-fc9-5
 OpenBabel03242009303D

 34 36  0  0  1  0  0  0  0  0999 V2000
   13.7124   -0.4309   22.5903 C   0  0  0  0  0  0  0  0  0  0  0  0
   13.3556   -0.1517   23.9095 C   0  0  0  0  0  0  0  0  0  0  0  0
   12.9121   -1.2689   21.8137 C   0  0  0  0  0  0  0  0  0  0  0  0
    7.8408   -6.3362   28.2899 C   0  0  0  0  0  0  0  0  0  0  0  0
   12.1986   -0.7105   24.4523 C   0  0  0  0  0  0  0  0  0  0  0  0
   11.7550   -1.8277   22.3565 C   0  0  0  0  0  0  0  0  0  0  0  0
    8.1173   -5.6888   27.0909 C   0  0  0  0  0  0  0  0  0  0  0  0
    7.7836   -5.5696   29.4427 C   0  0  0  0  0  0  0  0  0  0  0  0
    8.2461   -3.6379   28.2882 C   0  0  0  0  0  0  0  0  0  0  0  0
   11.3982   -1.5486   23.6758 C   0  0  0  0  0  0  0  0  0  0  0  0
    8.3252   -4.3140   27.0814 C   0  0  0  0  0  0  0  0  0  0  0  0
    9.4568   -1.4777   25.2382 C   0  0  0  0  0  0  0  0  0  0  0  0
    8.2231   -2.2522   25.6624 C   0  0  0  0  0  0  0  0  0  0  0  0
    9.6699   -3.3696   23.6748 C   0  0  0  0  0  0  0  0  0  0  0  0
    9.2197   -4.3425   24.7700 C   0  0  0  0  0  0  0  0  0  0  0  0
    7.9798   -4.2324   29.4728 N   0  0  0  0  0  0  0  0  0  0  0  0
   10.2056   -2.1243   24.2354 N   0  0  0  0  0  0  0  0  0  0  0  0
    8.6036   -3.6388   25.8964 N   0  0  0  0  0  0  0  0  0  0  0  0
    9.6698   -0.3645   25.7168 O   0  0  0  0  0  0  0  0  0  0  0  0
   14.6129    0.0047   22.1671 H   0  0  0  0  0  0  0  0  0  0  0  0
   13.9780    0.5013   24.5141 H   0  0  0  0  0  0  0  0  0  0  0  0
   13.1896   -1.4853   20.7862 H   0  0  0  0  0  0  0  0  0  0  0  0
    7.6753   -7.4070   28.3213 H   0  0  0  0  0  0  0  0  0  0  0  0
   11.9305   -0.4857   25.4816 H   0  0  0  0  0  0  0  0  0  0  0  0
   11.1389   -2.4793   21.7418 H   0  0  0  0  0  0  0  0  0  0  0  0
    8.1684   -6.2643   26.1704 H   0  0  0  0  0  0  0  0  0  0  0  0
    7.5712   -6.0267   30.4035 H   0  0  0  0  0  0  0  0  0  0  0  0
    8.3990   -2.5643   28.3444 H   0  0  0  0  0  0  0  0  0  0  0  0
    7.8224   -1.8037   26.5621 H   0  0  0  0  0  0  0  0  0  0  0  0
    7.4992   -2.1927   24.8588 H   0  0  0  0  0  0  0  0  0  0  0  0
   10.4581   -3.8252   23.0566 H   0  0  0  0  0  0  0  0  0  0  0  0
    8.8216   -3.1390   23.0137 H   0  0  0  0  0  0  0  0  0  0  0  0
    8.4963   -5.0577   24.3597 H   0  0  0  0  0  0  0  0  0  0  0  0
   10.0935   -4.9179   25.1014 H   0  0  0  0  0  0  0  0  0  0  0  0
  1  2  1  0  0  0  0
  1  3  2  0  0  0  0
  1 20  1  0  0  0  0
  2  5  2  0  0  0  0
  2 21  1  0  0  0  0
  3  6  1  0  0  0  0
  3 22  1  0  0  0  0
  4  7  2  0  0  0  0
  4  8  1  0  0  0  0
  4 23  1  0  0  0  0
  5 10  1  0  0  0  0
  5 24  1  0  0  0  0
  6 10  2  0  0  0  0
  6 25  1  0  0  0  0
  7 11  1  0  0  0  0
  7 26  1  0  0  0  0
  8 16  2  0  0  0  0
  8 27  1  0  0  0  0
  9 11  2  0  0  0  0
  9 16  1  0  0  0  0
  9 28  1  0  0  0  0
 10 17  1  0  0  0  0
 11 18  1  0  0  0  0
 12 13  1  0  0  0  0
 12 17  1  0  0  0  0
 12 19  2  0  0  0  0
 13 18  1  0  0  0  0
 13 29  1  0  0  0  0
 13 30  1  0  0  0  0
 14 15  1  0  0  0  0
 14 17  1  0  0  0  0
 14 31  1  0  0  0  0
 14 32  1  0  0  0  0
 15 18  1  0  0  0  0
 15 33  1  0  0  0  0
 15 34  1  0  0  0  0
M  END
>  <Chemgauss4 Score>
-6.14447593688965

>  <Number of Confs>
30

$$$$
