KIM-UNI-60f-3
 OpenBabel03242009303D

 34 35  0  0  0  0  0  0  0  0999 V2000
    8.2249   -5.4723   26.9236 C   0  0  0  0  0  0  0  0  0  0  0  0
    8.4254   -5.1443   28.2548 C   0  0  0  0  0  0  0  0  0  0  0  0
    9.0652   -3.0027   27.7235 C   0  0  0  0  0  0  0  0  0  0  0  0
    8.4664   -4.4915   25.9681 C   0  0  0  0  0  0  0  0  0  0  0  0
    8.8949   -3.2304   26.3674 C   0  0  0  0  0  0  0  0  0  0  0  0
    8.0918   -1.3131   25.0583 C   0  0  0  0  0  0  0  0  0  0  0  0
   10.4824   -2.0822   24.8677 C   0  0  0  0  0  0  0  0  0  0  0  0
   12.0991   -1.1703   22.2220 C   0  0  0  0  0  0  0  0  0  0  0  0
    8.4031   -0.4060   23.8975 C   0  0  0  0  0  0  0  0  0  0  0  0
    9.7757    0.1814   24.1012 C   0  0  0  0  0  0  0  0  0  0  0  0
    8.2590   -4.8180   24.5255 C   0  0  0  0  0  0  0  0  0  0  0  0
   12.0746   -0.6206   23.6284 C   0  0  0  0  0  0  0  0  0  0  0  0
    8.8408   -3.9305   28.6809 N   0  0  0  0  0  0  0  0  0  0  0  0
   13.2382   -1.5667   21.7428 N   0  0  0  0  0  0  0  0  0  0  0  0
    9.1597   -2.1746   25.4114 N   0  0  0  0  0  0  0  0  0  0  0  0
   10.7525   -0.8892   24.1755 N   0  0  0  0  0  0  0  0  0  0  0  0
   10.9105   -1.2301   21.5427 N   0  0  0  0  0  0  0  0  0  0  0  0
    6.9912   -1.2468   25.6062 O   0  0  0  0  0  0  0  0  0  0  0  0
   11.3164   -2.9903   24.9474 O   0  0  0  0  0  0  0  0  0  0  0  0
    7.8902   -6.4658   26.6452 H   0  0  0  0  0  0  0  0  0  0  0  0
    8.2512   -5.8739   29.0388 H   0  0  0  0  0  0  0  0  0  0  0  0
    9.3972   -2.0386   28.0973 H   0  0  0  0  0  0  0  0  0  0  0  0
    8.3380   -0.9781   22.9656 H   0  0  0  0  0  0  0  0  0  0  0  0
    7.6561    0.3939   23.8626 H   0  0  0  0  0  0  0  0  0  0  0  0
   10.0247    0.8458   23.2668 H   0  0  0  0  0  0  0  0  0  0  0  0
    9.8372    0.7532   25.0343 H   0  0  0  0  0  0  0  0  0  0  0  0
    7.2283   -4.5915   24.2293 H   0  0  0  0  0  0  0  0  0  0  0  0
    8.9408   -4.2429   23.8870 H   0  0  0  0  0  0  0  0  0  0  0  0
    8.4547   -5.8791   24.3273 H   0  0  0  0  0  0  0  0  0  0  0  0
   12.2417    0.4596   23.6285 H   0  0  0  0  0  0  0  0  0  0  0  0
   12.8191   -1.1148   24.2576 H   0  0  0  0  0  0  0  0  0  0  0  0
   13.0908   -1.9159   20.7893 H   0  0  0  0  0  0  0  0  0  0  0  0
   10.0458   -0.9148   21.9691 H   0  0  0  0  0  0  0  0  0  0  0  0
   10.8535   -1.5864   20.5945 H   0  0  0  0  0  0  0  0  0  0  0  0
  1  2  2  0  0  0  0
  1  4  1  0  0  0  0
  1 20  1  0  0  0  0
  2 13  1  0  0  0  0
  2 21  1  0  0  0  0
  3  5  1  0  0  0  0
  3 13  2  0  0  0  0
  3 22  1  0  0  0  0
  4  5  2  0  0  0  0
  4 11  1  0  0  0  0
  5 15  1  0  0  0  0
  6  9  1  0  0  0  0
  6 15  1  0  0  0  0
  6 18  2  0  0  0  0
  7 15  1  0  0  0  0
  7 16  1  0  0  0  0
  7 19  2  0  0  0  0
  8 12  1  0  0  0  0
  8 14  2  0  0  0  0
  8 17  1  0  0  0  0
  9 10  1  0  0  0  0
  9 23  1  0  0  0  0
  9 24  1  0  0  0  0
 10 16  1  0  0  0  0
 10 25  1  0  0  0  0
 10 26  1  0  0  0  0
 11 27  1  0  0  0  0
 11 28  1  0  0  0  0
 11 29  1  0  0  0  0
 12 16  1  0  0  0  0
 12 30  1  0  0  0  0
 12 31  1  0  0  0  0
 14 32  1  0  0  0  0
 17 33  1  0  0  0  0
 17 34  1  0  0  0  0
M  END
>  <Chemgauss4 Score>
-5.15618991851807

>  <Number of Confs>
33

$$$$
